sim-outorder: SimpleScalar/Alpha Tool Set version 3.0 of August, 2003.
Copyright (c) 1994-2003 by Todd M. Austin, Ph.D. and SimpleScalar, LLC.
All Rights Reserved. This version of SimpleScalar is licensed for academic
non-commercial use.  No portion of this work may be used by any commercial
entity, or for any commercial purpose, without the prior written permission
of SimpleScalar, LLC (info@simplescalar.com).


Processor Parameters:
Issue Width: 4
Window Size: 224
Number of Virtual Registers: 32
Number of Physical Registers: 256
Datapath Width: 64
Total Power Consumption: 110.149
Branch Predictor Power Consumption: 4.52313  (4.18%)
 branch target buffer power (W): 4.16837
 local predict power (W): 0.0879711
 global predict power (W): 0.0996078
 chooser power (W): 0.0702439
 RAS power (W): 0.0969383
Rename Logic Power Consumption: 0.683325  (0.632%)
 Instruction Decode Power (W): 0.0159915
 RAT decode_power (W): 0.113514
 RAT wordline_power (W): 0.0493708
 RAT bitline_power (W): 0.493541
 DCL Comparators (W): 0.0109075
Instruction Window Power Consumption: 14.2762  (13.2%)
 tagdrive (W): 0.827064
 tagmatch (W): 0.360565
 Selection Logic (W): 0.0885831
 decode_power (W): 1.16922
 wordline_power (W): 0.0844643
 bitline_power (W): 11.7463
Load/Store Queue Power Consumption: 7.97171  (7.37%)
 tagdrive (W): 3.75392
 tagmatch (W): 1.61238
 decode_power (W): 0.181222
 wordline_power (W): 0.0150119
 bitline_power (W): 2.40917
Arch. Register File Power Consumption: 3.57247  (3.3%)
 decode_power (W): 0.113514
 wordline_power (W): 0.0844643
 bitline_power (W): 3.37449
Result Bus Power Consumption: 9.01293  (8.33%)
Total Clock Power: 30.4863  (28.2%)
Int ALU Power: 4.66013  (4.31%)
FP ALU Power: 14.281  (13.2%)
Instruction Cache Power Consumption: 3.97049  (3.67%)
 decode_power (W): 1.67268
 wordline_power (W): 0.028656
 bitline_power (W): 1.5122
 senseamp_power (W): 0.096
 tagarray_power (W): 0.660946
Itlb_power (W): 0.263317 (0.243%)
Data Cache Power Consumption: 8.34726  (7.72%)
 decode_power (W): 1.44978
 wordline_power (W): 0.196735
 bitline_power (W): 4.58765
 senseamp_power (W): 0.768
 tagarray_power (W): 1.34509
Dtlb_power (W): 0.900515 (0.833%)
Level 2 Cache Power Consumption: 5.20014 (4.81%)
 decode_power (W): 0.41817
 wordline_power (W): 0.0430878
 bitline_power (W): 3.0244
 senseamp_power (W): 0.192
 tagarray_power (W): 1.52247
sim-main: initalizing context 0:hmmerNS.1.arg
args: 0:./hmmer.base.alpha 1:./nph3.hmm 2:./swiss41 
sim: loading binary...
sim: loading ./hmmer.base.alpha
sim-main: initalizing context 1:libquantumNS.1.arg
args: 0:./libquantum.base.alpha 1:1397 2:8 
sim: loading binary...
sim: loading ./libquantum.base.alpha
warning: section `.comment' ignored...
sim-main: initalizing context 2:milcNS.1.arg
args: 0:./milc.base.alpha 
sim: loading binary...
sim: loading ./milc.base.alpha
sim-main: initalizing context 3:omnetppNS.1.arg
args: 0:./omnetpp.base.alpha 1:./omnetpp.ini 
sim: loading binary...
sim: loading ./omnetpp.base.alpha
warning: section `.comment' ignored...
sim: command line: ../m-sim_v2.0/sim-outorder hmmerNS.1.arg libquantumNS.1.arg milcNS.1.arg omnetppNS.1.arg 

sim: simulation started @ Tue Aug  9 07:22:26 2022, options follow:

sim-outorder: This simulator implements a very detailed out-of-order issue
superscalar processor with a two-level memory system and speculative
execution support.  This simulator is a performance simulator, tracking the
latency of all pipeline operations.

# -config                     # load configuration from a file
# -dumpconfig                 # dump configuration to a file
# -h                    false # print help message    
# -v                    false # verbose operation     
# -d                    false # enable debug message  
# -i                    false # start in Dlite debugger
-seed                       1 # random number generator seed (0 for timer seed)
# -q                    false # initialize and terminate immediately
# -redir:sim           <null> # redirect simulator output to file (non-interactive only)
# -redir:prog          <null> # redirect simulated program output to file
-nice                       0 # simulator scheduling priority
-max:inst           250000000 # maximum number of inst's to execute
-fastfwd             10000000 # number of insts skipped before timing starts
# -ptrace              <null> # generate pipetrace, i.e., <fname|stdout|stderr> <range>
-fetch:speed                1 # speed of front-end of machine relative to execution core
-bpred                  bimod # branch predictor type {nottaken|taken|perfect|bimod|2lev|comb}
-bpred:bimod     2048 # bimodal predictor config (<table size>)
-bpred:2lev      1 1024 8 0 # 2-level predictor config (<l1size> <l2size> <hist_size> <xor>)
-bpred:comb      1024 # combining predictor config (<meta_table_size>)
-bpred:ras                  8 # return address stack size (0 for no return stack)
-bpred:btb       512 4 # BTB config (<num_sets> <associativity>)
# -bpred:spec_update       <null> # speculative predictors update in {ID|WB} (default non-spec)
-cpred                  bimod # cache load-latency predictor type {nottaken|taken|perfect|bimod|2lev|comb}
-cpred:bimod     2048 # cache load-latency bimodal predictor config (<table size>)
-cpred:2lev      1 1024 8 0 # cache load-latency 2-level predictor config (<l1size> <l2size> <hist_size> <xor>)
-cpred:comb      1024 # cache load-latency combining predictor config (<meta_table_size>)
-cpred:ras                  0 # return address stack size (0 for no return stack)
-cpred:btb       512 4 # cache load-latency BTB config (<num_sets> <associativity>)
-decode:width               4 # instruction decode B/W (insts/cycle)
-issue:width                4 # instruction issue B/W (insts/cycle)
-issue:inorder          false # run pipeline with in-order issue
-issue:wrongpath         true # issue instructions down wrong execution paths
-commit:width               4 # instruction commit B/W (insts/cycle)
-rob:size                 224 # reorder buffer (ROB) size
-fetch:policy |icount|round_robin|       icount # fetch policy          
-recovery:model        squash # Alpha squash recovery or perfect predition: |squash|perfect|
-iq:size                   96 # issue queue (IQ) size 
-iq:issue_exec_delay            1 # minimum cycles between issue and execution
-fetch_rename_delay            4 # number of cycles between fetch and rename stages
-rename_dispatch_delay            1 # number cycles between rename and dispatch stages
-rf:size                  256 # register file (RF) size for each the INT and FP physical register file)
-lsq:size                 128 # load/store queue (LSQ) size
-cache:dl1       dl1:256:32:4:l # l1 data cache config, i.e., {<config>|none}
-cache:dl1lat               1 # l1 data cache hit latency (in cycles)
-cache:dl2       ul2:1024:64:8:l # l2 data cache config, i.e., {<config>|none}
-cache:dl2lat               6 # l2 data cache hit latency (in cycles)
-cache:il1       il1:512:32:2:l # l1 inst cache config, i.e., {<config>|dl1|dl2|none}
-cache:il1lat               1 # l1 instruction cache hit latency (in cycles)
-cache:il2                dl2 # l2 instruction cache config, i.e., {<config>|dl2|none}
-cache:il2lat               6 # l2 instruction cache hit latency (in cycles)
-cache:flush            false # flush caches on system calls
-cache:icompress        false # convert 64-bit inst addresses to 32-bit inst equivalents
-mem:lat         100 2 # memory access latency (<first_chunk> <inter_chunk>)
-mem:width                  8 # memory access bus width (in bytes)
-tlb:itlb        itlb:16:4096:4:l # instruction TLB config, i.e., {<config>|none}
-tlb:dtlb        dtlb:32:4096:4:l # data TLB config, i.e., {<config>|none}
-tlb:lat                   30 # inst/data TLB miss latency (in cycles)
-res:ialu                   4 # total number of integer ALU's available
-res:imult                  1 # total number of integer multiplier/dividers available
-res:memport                2 # total number of memory system ports available (to CPU)
-res:fpalu                  4 # total number of floating point ALU's available
-res:fpmult                 1 # total number of floating point multiplier/dividers available
# -pcstat              <null> # profile stat(s) against text addr's (mult uses ok)
-power:print_stats         true # print power statistics collected by wattch?

  Pipetrace range arguments are formatted as follows:

    {{@|#}<start>}:{{@|#|+}<end>}

  Both ends of the range are optional, if neither are specified, the entire
  execution is traced.  Ranges that start with a `@' designate an address
  range to be traced, those that start with an `#' designate a cycle count
  range.  All other range values represent an instruction count range.  The
  second argument, if specified with a `+', indicates a value relative
  to the first argument, e.g., 1000:+100 == 1000:1100.  Program symbols may
  be used in all contexts.

    Examples:   -ptrace FOO.trc #0:#1000
                -ptrace BAR.trc @2000:
                -ptrace BLAH.trc :1500
                -ptrace UXXE.trc :
                -ptrace FOOBAR.trc @main:+278

  Branch predictor configuration examples for 2-level predictor:
    Configurations:   N, M, W, X
      N   # entries in first level (# of shift register(s))
      W   width of shift register(s)
      M   # entries in 2nd level (# of counters, or other FSM)
      X   (yes-1/no-0) xor history and address for 2nd level index
    Sample predictors:
      GAg     : 1, W, 2^W, 0
      GAp     : 1, W, M (M > 2^W), 0
      PAg     : N, W, 2^W, 0
      PAp     : N, W, M (M == 2^(N+W)), 0
      gshare  : 1, W, 2^W, 1
  Predictor `comb' combines a bimodal and a 2-level predictor.

  The cache config parameter <config> has the following format:

    <name>:<nsets>:<bsize>:<assoc>:<repl>

    <name>   - name of the cache being defined
    <nsets>  - number of sets in the cache
    <bsize>  - block size of the cache
    <assoc>  - associativity of the cache
    <repl>   - block replacement strategy, 'l'-LRU, 'f'-FIFO, 'r'-random

    Examples:   -cache:dl1 dl1:4096:32:1:l
                -dtlb dtlb:128:4096:32:r

  Cache levels can be unified by pointing a level of the instruction cache
  hierarchy at the data cache hiearchy using the "dl1" and "dl2" cache
  configuration arguments.  Most sensible combinations are supported, e.g.,

    A unified l2 cache (il2 is pointed at dl2):
      -cache:il1 il1:128:64:1:l -cache:il2 dl2
      -cache:dl1 dl1:256:32:1:l -cache:dl2 ul2:1024:64:2:l

    Or, a fully unified cache hierarchy (il1 pointed at dl1):
      -cache:il1 dl1
      -cache:dl1 ul1:256:32:1:l -cache:dl2 ul2:1024:64:2:l



sim: ** fast forwarding insts **
warning: unsupported ioctl call: ioctl(536900702, ...)
sim: ** starting performance simulation **
EPOCH STARTS
TH0 ROB: 4 LSQ: 2 IQ: 0 IPC: 0.0048
TH1 ROB: 105 LSQ: 85 IQ: 96, IPC: 2.1784
TH2 ROB: 4 LSQ: 2 IQ: 0, IPC: 0.0075
TH3 ROB: 4 LSQ: 2 IQ: 0, IPC: 0.0066
EPOCH ENDS
EPOCH STARTS
TH0 ROB: 4 LSQ: 2 IQ: 0 IPC: 0.0024
TH1 ROB: 104 LSQ: 85 IQ: 96, IPC: 2.1873
TH2 ROB: 4 LSQ: 2 IQ: 0, IPC: 0.0038
TH3 ROB: 4 LSQ: 2 IQ: 0, IPC: 0.0033
EPOCH ENDS
EPOCH STARTS
TH0 ROB: 4 LSQ: 2 IQ: 0 IPC: 0.0016
TH1 ROB: 105 LSQ: 87 IQ: 96, IPC: 2.1902
TH2 ROB: 4 LSQ: 2 IQ: 0, IPC: 0.0025
TH3 ROB: 4 LSQ: 2 IQ: 0, IPC: 0.0022
EPOCH ENDS
EPOCH STARTS
TH0 ROB: 4 LSQ: 2 IQ: 0 IPC: 0.0012
TH1 ROB: 105 LSQ: 86 IQ: 96, IPC: 2.1917
TH2 ROB: 4 LSQ: 2 IQ: 0, IPC: 0.0019
TH3 ROB: 4 LSQ: 2 IQ: 0, IPC: 0.0017
EPOCH ENDS
EPOCH STARTS
TH0 ROB: 4 LSQ: 2 IQ: 0 IPC: 0.0010
TH1 ROB: 104 LSQ: 85 IQ: 96, IPC: 2.1926
TH2 ROB: 4 LSQ: 2 IQ: 0, IPC: 0.0015
TH3 ROB: 4 LSQ: 2 IQ: 0, IPC: 0.0013
EPOCH ENDS
EPOCH STARTS
TH0 ROB: 4 LSQ: 2 IQ: 0 IPC: 0.0008
TH1 ROB: 105 LSQ: 86 IQ: 96, IPC: 2.1931
TH2 ROB: 4 LSQ: 2 IQ: 0, IPC: 0.0013
TH3 ROB: 4 LSQ: 2 IQ: 0, IPC: 0.0011
EPOCH ENDS
EPOCH STARTS
TH0 ROB: 4 LSQ: 2 IQ: 0 IPC: 0.0007
TH1 ROB: 105 LSQ: 87 IQ: 96, IPC: 2.1936
TH2 ROB: 4 LSQ: 2 IQ: 0, IPC: 0.0011
TH3 ROB: 4 LSQ: 2 IQ: 0, IPC: 0.0009
EPOCH ENDS
EPOCH STARTS
TH0 ROB: 4 LSQ: 2 IQ: 0 IPC: 0.0006
TH1 ROB: 105 LSQ: 87 IQ: 96, IPC: 2.1939
TH2 ROB: 4 LSQ: 2 IQ: 0, IPC: 0.0009
TH3 ROB: 4 LSQ: 2 IQ: 0, IPC: 0.0008
EPOCH ENDS
EPOCH STARTS
TH0 ROB: 4 LSQ: 2 IQ: 0 IPC: 0.0005
TH1 ROB: 106 LSQ: 87 IQ: 96, IPC: 2.1941
TH2 ROB: 4 LSQ: 2 IQ: 0, IPC: 0.0008
TH3 ROB: 4 LSQ: 2 IQ: 0, IPC: 0.0007
EPOCH ENDS
EPOCH STARTS
TH0 ROB: 4 LSQ: 2 IQ: 0 IPC: 0.0005
TH1 ROB: 104 LSQ: 85 IQ: 96, IPC: 2.1943
TH2 ROB: 4 LSQ: 2 IQ: 0, IPC: 0.0008
TH3 ROB: 4 LSQ: 2 IQ: 0, IPC: 0.0007
EPOCH ENDS
EPOCH STARTS
TH0 ROB: 4 LSQ: 2 IQ: 0 IPC: 0.0004
TH1 ROB: 104 LSQ: 85 IQ: 96, IPC: 2.1945
TH2 ROB: 4 LSQ: 2 IQ: 0, IPC: 0.0007
TH3 ROB: 4 LSQ: 2 IQ: 0, IPC: 0.0006
EPOCH ENDS
EPOCH STARTS
TH0 ROB: 4 LSQ: 2 IQ: 0 IPC: 0.0004
TH1 ROB: 105 LSQ: 87 IQ: 96, IPC: 2.1946
TH2 ROB: 4 LSQ: 2 IQ: 0, IPC: 0.0006
TH3 ROB: 4 LSQ: 2 IQ: 0, IPC: 0.0006
EPOCH ENDS
EPOCH STARTS
TH0 ROB: 4 LSQ: 2 IQ: 0 IPC: 0.0004
TH1 ROB: 106 LSQ: 87 IQ: 96, IPC: 2.1947
TH2 ROB: 4 LSQ: 2 IQ: 0, IPC: 0.0006
TH3 ROB: 4 LSQ: 2 IQ: 0, IPC: 0.0005
EPOCH ENDS
EPOCH STARTS
TH0 ROB: 4 LSQ: 2 IQ: 0 IPC: 0.0003
TH1 ROB: 106 LSQ: 87 IQ: 96, IPC: 2.1948
TH2 ROB: 4 LSQ: 2 IQ: 0, IPC: 0.0005
TH3 ROB: 4 LSQ: 2 IQ: 0, IPC: 0.0005
EPOCH ENDS
EPOCH STARTS
TH0 ROB: 4 LSQ: 2 IQ: 0 IPC: 0.0003
TH1 ROB: 106 LSQ: 87 IQ: 96, IPC: 2.1949
TH2 ROB: 4 LSQ: 2 IQ: 0, IPC: 0.0005
TH3 ROB: 4 LSQ: 2 IQ: 0, IPC: 0.0004
EPOCH ENDS
EPOCH STARTS
TH0 ROB: 4 LSQ: 2 IQ: 0 IPC: 0.0003
TH1 ROB: 104 LSQ: 86 IQ: 96, IPC: 2.1950
TH2 ROB: 4 LSQ: 2 IQ: 0, IPC: 0.0005
TH3 ROB: 4 LSQ: 2 IQ: 0, IPC: 0.0004
EPOCH ENDS
EPOCH STARTS
TH0 ROB: 4 LSQ: 2 IQ: 0 IPC: 0.0003
TH1 ROB: 104 LSQ: 87 IQ: 96, IPC: 2.1950
TH2 ROB: 4 LSQ: 2 IQ: 0, IPC: 0.0004
TH3 ROB: 4 LSQ: 2 IQ: 0, IPC: 0.0004
EPOCH ENDS
EPOCH STARTS
TH0 ROB: 4 LSQ: 2 IQ: 0 IPC: 0.0003
TH1 ROB: 105 LSQ: 86 IQ: 96, IPC: 2.1951
TH2 ROB: 4 LSQ: 2 IQ: 0, IPC: 0.0004
TH3 ROB: 4 LSQ: 2 IQ: 0, IPC: 0.0004
EPOCH ENDS
EPOCH STARTS
TH0 ROB: 4 LSQ: 2 IQ: 0 IPC: 0.0003
TH1 ROB: 105 LSQ: 86 IQ: 96, IPC: 2.1951
TH2 ROB: 4 LSQ: 2 IQ: 0, IPC: 0.0004
TH3 ROB: 4 LSQ: 2 IQ: 0, IPC: 0.0003
EPOCH ENDS
EPOCH STARTS
TH0 ROB: 4 LSQ: 2 IQ: 0 IPC: 0.0002
TH1 ROB: 106 LSQ: 87 IQ: 96, IPC: 2.1952
TH2 ROB: 4 LSQ: 2 IQ: 0, IPC: 0.0004
TH3 ROB: 4 LSQ: 2 IQ: 0, IPC: 0.0003
EPOCH ENDS
EPOCH STARTS
TH0 ROB: 4 LSQ: 2 IQ: 0 IPC: 0.0002
TH1 ROB: 105 LSQ: 87 IQ: 96, IPC: 2.1952
TH2 ROB: 4 LSQ: 2 IQ: 0, IPC: 0.0004
TH3 ROB: 4 LSQ: 2 IQ: 0, IPC: 0.0003
EPOCH ENDS
EPOCH STARTS
TH0 ROB: 4 LSQ: 2 IQ: 0 IPC: 0.0002
TH1 ROB: 105 LSQ: 86 IQ: 96, IPC: 2.1953
TH2 ROB: 4 LSQ: 2 IQ: 0, IPC: 0.0003
TH3 ROB: 4 LSQ: 2 IQ: 0, IPC: 0.0003
EPOCH ENDS
EPOCH STARTS
TH0 ROB: 4 LSQ: 2 IQ: 0 IPC: 0.0002
TH1 ROB: 105 LSQ: 86 IQ: 96, IPC: 2.1953
TH2 ROB: 4 LSQ: 2 IQ: 0, IPC: 0.0003
TH3 ROB: 4 LSQ: 2 IQ: 0, IPC: 0.0003
EPOCH ENDS
EPOCH STARTS
TH0 ROB: 4 LSQ: 2 IQ: 0 IPC: 0.0002
TH1 ROB: 105 LSQ: 86 IQ: 96, IPC: 2.1953
TH2 ROB: 4 LSQ: 2 IQ: 0, IPC: 0.0003
TH3 ROB: 4 LSQ: 2 IQ: 0, IPC: 0.0003
EPOCH ENDS
EPOCH STARTS
TH0 ROB: 4 LSQ: 2 IQ: 0 IPC: 0.0002
TH1 ROB: 105 LSQ: 86 IQ: 96, IPC: 2.1954
TH2 ROB: 4 LSQ: 2 IQ: 0, IPC: 0.0003
TH3 ROB: 4 LSQ: 2 IQ: 0, IPC: 0.0003
EPOCH ENDS
EPOCH STARTS
TH0 ROB: 4 LSQ: 2 IQ: 0 IPC: 0.0002
TH1 ROB: 105 LSQ: 87 IQ: 96, IPC: 2.1954
TH2 ROB: 4 LSQ: 2 IQ: 0, IPC: 0.0003
TH3 ROB: 4 LSQ: 2 IQ: 0, IPC: 0.0003
EPOCH ENDS
EPOCH STARTS
TH0 ROB: 4 LSQ: 2 IQ: 0 IPC: 0.0002
TH1 ROB: 105 LSQ: 86 IQ: 96, IPC: 2.1954
TH2 ROB: 4 LSQ: 2 IQ: 0, IPC: 0.0003
TH3 ROB: 4 LSQ: 2 IQ: 0, IPC: 0.0002
EPOCH ENDS
EPOCH STARTS
TH0 ROB: 4 LSQ: 2 IQ: 0 IPC: 0.0002
TH1 ROB: 105 LSQ: 86 IQ: 96, IPC: 2.1954
TH2 ROB: 4 LSQ: 2 IQ: 0, IPC: 0.0003
TH3 ROB: 4 LSQ: 2 IQ: 0, IPC: 0.0002
EPOCH ENDS
EPOCH STARTS
TH0 ROB: 4 LSQ: 2 IQ: 0 IPC: 0.0002
TH1 ROB: 105 LSQ: 86 IQ: 96, IPC: 2.1955
TH2 ROB: 4 LSQ: 2 IQ: 0, IPC: 0.0003
TH3 ROB: 4 LSQ: 2 IQ: 0, IPC: 0.0002
EPOCH ENDS
EPOCH STARTS
TH0 ROB: 4 LSQ: 2 IQ: 0 IPC: 0.0002
TH1 ROB: 105 LSQ: 87 IQ: 96, IPC: 2.1955
TH2 ROB: 4 LSQ: 2 IQ: 0, IPC: 0.0003
TH3 ROB: 4 LSQ: 2 IQ: 0, IPC: 0.0002
EPOCH ENDS
EPOCH STARTS
TH0 ROB: 4 LSQ: 2 IQ: 0 IPC: 0.0002
TH1 ROB: 105 LSQ: 88 IQ: 96, IPC: 2.1955
TH2 ROB: 4 LSQ: 2 IQ: 0, IPC: 0.0002
TH3 ROB: 4 LSQ: 2 IQ: 0, IPC: 0.0002
EPOCH ENDS
EPOCH STARTS
TH0 ROB: 4 LSQ: 2 IQ: 0 IPC: 0.0002
TH1 ROB: 104 LSQ: 85 IQ: 96, IPC: 2.1955
TH2 ROB: 4 LSQ: 2 IQ: 0, IPC: 0.0002
TH3 ROB: 4 LSQ: 2 IQ: 0, IPC: 0.0002
EPOCH ENDS
EPOCH STARTS
TH0 ROB: 4 LSQ: 2 IQ: 0 IPC: 0.0001
TH1 ROB: 104 LSQ: 85 IQ: 96, IPC: 2.1955
TH2 ROB: 4 LSQ: 2 IQ: 0, IPC: 0.0002
TH3 ROB: 4 LSQ: 2 IQ: 0, IPC: 0.0002
EPOCH ENDS
EPOCH STARTS
TH0 ROB: 4 LSQ: 2 IQ: 0 IPC: 0.0001
TH1 ROB: 105 LSQ: 86 IQ: 96, IPC: 2.1956
TH2 ROB: 4 LSQ: 2 IQ: 0, IPC: 0.0002
TH3 ROB: 4 LSQ: 2 IQ: 0, IPC: 0.0002
EPOCH ENDS
EPOCH STARTS
TH0 ROB: 4 LSQ: 2 IQ: 0 IPC: 0.0001
TH1 ROB: 105 LSQ: 87 IQ: 96, IPC: 2.1956
TH2 ROB: 4 LSQ: 2 IQ: 0, IPC: 0.0002
TH3 ROB: 4 LSQ: 2 IQ: 0, IPC: 0.0002
EPOCH ENDS
EPOCH STARTS
TH0 ROB: 4 LSQ: 2 IQ: 0 IPC: 0.0001
TH1 ROB: 106 LSQ: 87 IQ: 96, IPC: 2.1956
TH2 ROB: 4 LSQ: 2 IQ: 0, IPC: 0.0002
TH3 ROB: 4 LSQ: 2 IQ: 0, IPC: 0.0002
EPOCH ENDS
EPOCH STARTS
TH0 ROB: 4 LSQ: 2 IQ: 0 IPC: 0.0001
TH1 ROB: 104 LSQ: 85 IQ: 96, IPC: 2.1956
TH2 ROB: 4 LSQ: 2 IQ: 0, IPC: 0.0002
TH3 ROB: 4 LSQ: 2 IQ: 0, IPC: 0.0002
EPOCH ENDS
EPOCH STARTS
TH0 ROB: 4 LSQ: 2 IQ: 0 IPC: 0.0001
TH1 ROB: 104 LSQ: 85 IQ: 96, IPC: 2.1956
TH2 ROB: 4 LSQ: 2 IQ: 0, IPC: 0.0002
TH3 ROB: 4 LSQ: 2 IQ: 0, IPC: 0.0002
EPOCH ENDS
EPOCH STARTS
TH0 ROB: 4 LSQ: 2 IQ: 0 IPC: 0.0001
TH1 ROB: 104 LSQ: 85 IQ: 96, IPC: 2.1956
TH2 ROB: 4 LSQ: 2 IQ: 0, IPC: 0.0002
TH3 ROB: 4 LSQ: 2 IQ: 0, IPC: 0.0002
EPOCH ENDS
EPOCH STARTS
TH0 ROB: 4 LSQ: 2 IQ: 0 IPC: 0.0001
TH1 ROB: 105 LSQ: 87 IQ: 96, IPC: 2.1956
TH2 ROB: 4 LSQ: 2 IQ: 0, IPC: 0.0002
TH3 ROB: 4 LSQ: 2 IQ: 0, IPC: 0.0002
EPOCH ENDS
EPOCH STARTS
TH0 ROB: 4 LSQ: 2 IQ: 0 IPC: 0.0001
TH1 ROB: 105 LSQ: 86 IQ: 96, IPC: 2.1956
TH2 ROB: 4 LSQ: 2 IQ: 0, IPC: 0.0002
TH3 ROB: 4 LSQ: 2 IQ: 0, IPC: 0.0002
EPOCH ENDS
EPOCH STARTS
TH0 ROB: 4 LSQ: 2 IQ: 0 IPC: 0.0001
TH1 ROB: 104 LSQ: 85 IQ: 96, IPC: 2.1957
TH2 ROB: 4 LSQ: 2 IQ: 0, IPC: 0.0002
TH3 ROB: 4 LSQ: 2 IQ: 0, IPC: 0.0002
EPOCH ENDS
EPOCH STARTS
TH0 ROB: 4 LSQ: 2 IQ: 0 IPC: 0.0001
TH1 ROB: 104 LSQ: 85 IQ: 96, IPC: 2.1957
TH2 ROB: 4 LSQ: 2 IQ: 0, IPC: 0.0002
TH3 ROB: 4 LSQ: 2 IQ: 0, IPC: 0.0002
EPOCH ENDS
EPOCH STARTS
TH0 ROB: 4 LSQ: 2 IQ: 0 IPC: 0.0001
TH1 ROB: 104 LSQ: 87 IQ: 96, IPC: 2.1957
TH2 ROB: 4 LSQ: 2 IQ: 0, IPC: 0.0002
TH3 ROB: 4 LSQ: 2 IQ: 0, IPC: 0.0002
EPOCH ENDS
EPOCH STARTS
TH0 ROB: 4 LSQ: 2 IQ: 0 IPC: 0.0001
TH1 ROB: 105 LSQ: 87 IQ: 96, IPC: 2.1957
TH2 ROB: 4 LSQ: 2 IQ: 0, IPC: 0.0002
TH3 ROB: 4 LSQ: 2 IQ: 0, IPC: 0.0001
EPOCH ENDS
EPOCH STARTS
TH0 ROB: 4 LSQ: 2 IQ: 0 IPC: 0.0001
TH1 ROB: 105 LSQ: 85 IQ: 96, IPC: 2.1957
TH2 ROB: 4 LSQ: 2 IQ: 0, IPC: 0.0002
TH3 ROB: 4 LSQ: 2 IQ: 0, IPC: 0.0001
EPOCH ENDS
EPOCH STARTS
TH0 ROB: 4 LSQ: 2 IQ: 0 IPC: 0.0001
TH1 ROB: 104 LSQ: 85 IQ: 96, IPC: 2.1957
TH2 ROB: 4 LSQ: 2 IQ: 0, IPC: 0.0002
TH3 ROB: 4 LSQ: 2 IQ: 0, IPC: 0.0001
EPOCH ENDS
EPOCH STARTS
TH0 ROB: 4 LSQ: 2 IQ: 0 IPC: 0.0001
TH1 ROB: 104 LSQ: 85 IQ: 96, IPC: 2.1957
TH2 ROB: 4 LSQ: 2 IQ: 0, IPC: 0.0002
TH3 ROB: 4 LSQ: 2 IQ: 0, IPC: 0.0001
EPOCH ENDS
EPOCH STARTS
TH0 ROB: 4 LSQ: 2 IQ: 0 IPC: 0.0001
TH1 ROB: 104 LSQ: 86 IQ: 96, IPC: 2.1957
TH2 ROB: 4 LSQ: 2 IQ: 0, IPC: 0.0002
TH3 ROB: 4 LSQ: 2 IQ: 0, IPC: 0.0001
EPOCH ENDS
EPOCH STARTS
TH0 ROB: 4 LSQ: 2 IQ: 0 IPC: 0.0001
TH1 ROB: 107 LSQ: 88 IQ: 96, IPC: 2.1957
TH2 ROB: 4 LSQ: 2 IQ: 0, IPC: 0.0002
TH3 ROB: 4 LSQ: 2 IQ: 0, IPC: 0.0001
EPOCH ENDS
EPOCH STARTS
TH0 ROB: 4 LSQ: 2 IQ: 0 IPC: 0.0001
TH1 ROB: 105 LSQ: 86 IQ: 96, IPC: 2.1957
TH2 ROB: 4 LSQ: 2 IQ: 0, IPC: 0.0001
TH3 ROB: 4 LSQ: 2 IQ: 0, IPC: 0.0001
EPOCH ENDS
EPOCH STARTS
TH0 ROB: 4 LSQ: 2 IQ: 0 IPC: 0.0001
TH1 ROB: 105 LSQ: 85 IQ: 96, IPC: 2.1957
TH2 ROB: 4 LSQ: 2 IQ: 0, IPC: 0.0001
TH3 ROB: 4 LSQ: 2 IQ: 0, IPC: 0.0001
EPOCH ENDS
EPOCH STARTS
TH0 ROB: 4 LSQ: 2 IQ: 0 IPC: 0.0001
TH1 ROB: 104 LSQ: 85 IQ: 96, IPC: 2.1957
TH2 ROB: 4 LSQ: 2 IQ: 0, IPC: 0.0001
TH3 ROB: 4 LSQ: 2 IQ: 0, IPC: 0.0001
EPOCH ENDS
EPOCH STARTS
TH0 ROB: 4 LSQ: 2 IQ: 0 IPC: 0.0001
TH1 ROB: 105 LSQ: 87 IQ: 96, IPC: 2.1958
TH2 ROB: 4 LSQ: 2 IQ: 0, IPC: 0.0001
TH3 ROB: 4 LSQ: 2 IQ: 0, IPC: 0.0001
EPOCH ENDS
EPOCH STARTS
TH0 ROB: 4 LSQ: 2 IQ: 0 IPC: 0.0001
TH1 ROB: 105 LSQ: 86 IQ: 96, IPC: 2.1958
TH2 ROB: 4 LSQ: 2 IQ: 0, IPC: 0.0001
TH3 ROB: 4 LSQ: 2 IQ: 0, IPC: 0.0001
EPOCH ENDS
EPOCH STARTS
TH0 ROB: 4 LSQ: 2 IQ: 0 IPC: 0.0001
TH1 ROB: 104 LSQ: 85 IQ: 96, IPC: 2.1958
TH2 ROB: 4 LSQ: 2 IQ: 0, IPC: 0.0001
TH3 ROB: 4 LSQ: 2 IQ: 0, IPC: 0.0001
EPOCH ENDS
EPOCH STARTS
TH0 ROB: 4 LSQ: 2 IQ: 0 IPC: 0.0001
TH1 ROB: 105 LSQ: 86 IQ: 96, IPC: 2.1958
TH2 ROB: 4 LSQ: 2 IQ: 0, IPC: 0.0001
TH3 ROB: 4 LSQ: 2 IQ: 0, IPC: 0.0001
EPOCH ENDS
EPOCH STARTS
TH0 ROB: 4 LSQ: 2 IQ: 0 IPC: 0.0001
TH1 ROB: 105 LSQ: 87 IQ: 96, IPC: 2.1958
TH2 ROB: 4 LSQ: 2 IQ: 0, IPC: 0.0001
TH3 ROB: 4 LSQ: 2 IQ: 0, IPC: 0.0001
EPOCH ENDS
EPOCH STARTS
TH0 ROB: 4 LSQ: 2 IQ: 0 IPC: 0.0001
TH1 ROB: 105 LSQ: 87 IQ: 96, IPC: 2.1958
TH2 ROB: 4 LSQ: 2 IQ: 0, IPC: 0.0001
TH3 ROB: 4 LSQ: 2 IQ: 0, IPC: 0.0001
EPOCH ENDS
EPOCH STARTS
TH0 ROB: 4 LSQ: 2 IQ: 0 IPC: 0.0001
TH1 ROB: 106 LSQ: 87 IQ: 96, IPC: 2.1958
TH2 ROB: 4 LSQ: 2 IQ: 0, IPC: 0.0001
TH3 ROB: 4 LSQ: 2 IQ: 0, IPC: 0.0001
EPOCH ENDS
EPOCH STARTS
TH0 ROB: 4 LSQ: 2 IQ: 0 IPC: 0.0001
TH1 ROB: 104 LSQ: 85 IQ: 96, IPC: 2.1958
TH2 ROB: 4 LSQ: 2 IQ: 0, IPC: 0.0001
TH3 ROB: 4 LSQ: 2 IQ: 0, IPC: 0.0001
EPOCH ENDS
EPOCH STARTS
TH0 ROB: 4 LSQ: 2 IQ: 0 IPC: 0.0001
TH1 ROB: 104 LSQ: 85 IQ: 96, IPC: 2.1958
TH2 ROB: 4 LSQ: 2 IQ: 0, IPC: 0.0001
TH3 ROB: 4 LSQ: 2 IQ: 0, IPC: 0.0001
EPOCH ENDS
EPOCH STARTS
TH0 ROB: 4 LSQ: 2 IQ: 0 IPC: 0.0001
TH1 ROB: 105 LSQ: 87 IQ: 96, IPC: 2.1958
TH2 ROB: 4 LSQ: 2 IQ: 0, IPC: 0.0001
TH3 ROB: 4 LSQ: 2 IQ: 0, IPC: 0.0001
EPOCH ENDS
EPOCH STARTS
TH0 ROB: 4 LSQ: 2 IQ: 0 IPC: 0.0001
TH1 ROB: 106 LSQ: 87 IQ: 96, IPC: 2.1958
TH2 ROB: 4 LSQ: 2 IQ: 0, IPC: 0.0001
TH3 ROB: 4 LSQ: 2 IQ: 0, IPC: 0.0001
EPOCH ENDS
EPOCH STARTS
TH0 ROB: 4 LSQ: 2 IQ: 0 IPC: 0.0001
TH1 ROB: 106 LSQ: 87 IQ: 96, IPC: 2.1958
TH2 ROB: 4 LSQ: 2 IQ: 0, IPC: 0.0001
TH3 ROB: 4 LSQ: 2 IQ: 0, IPC: 0.0001
EPOCH ENDS
EPOCH STARTS
TH0 ROB: 4 LSQ: 2 IQ: 0 IPC: 0.0001
TH1 ROB: 106 LSQ: 87 IQ: 96, IPC: 2.1958
TH2 ROB: 4 LSQ: 2 IQ: 0, IPC: 0.0001
TH3 ROB: 4 LSQ: 2 IQ: 0, IPC: 0.0001
EPOCH ENDS
EPOCH STARTS
TH0 ROB: 4 LSQ: 2 IQ: 0 IPC: 0.0001
TH1 ROB: 104 LSQ: 86 IQ: 96, IPC: 2.1958
TH2 ROB: 4 LSQ: 2 IQ: 0, IPC: 0.0001
TH3 ROB: 4 LSQ: 2 IQ: 0, IPC: 0.0001
EPOCH ENDS
EPOCH STARTS
TH0 ROB: 4 LSQ: 2 IQ: 0 IPC: 0.0001
TH1 ROB: 104 LSQ: 87 IQ: 96, IPC: 2.1958
TH2 ROB: 4 LSQ: 2 IQ: 0, IPC: 0.0001
TH3 ROB: 4 LSQ: 2 IQ: 0, IPC: 0.0001
EPOCH ENDS
EPOCH STARTS
TH0 ROB: 4 LSQ: 2 IQ: 0 IPC: 0.0001
TH1 ROB: 105 LSQ: 86 IQ: 96, IPC: 2.1958
TH2 ROB: 4 LSQ: 2 IQ: 0, IPC: 0.0001
TH3 ROB: 4 LSQ: 2 IQ: 0, IPC: 0.0001
EPOCH ENDS
EPOCH STARTS
TH0 ROB: 4 LSQ: 2 IQ: 0 IPC: 0.0001
TH1 ROB: 105 LSQ: 86 IQ: 96, IPC: 2.1958
TH2 ROB: 4 LSQ: 2 IQ: 0, IPC: 0.0001
TH3 ROB: 4 LSQ: 2 IQ: 0, IPC: 0.0001
EPOCH ENDS
EPOCH STARTS
TH0 ROB: 4 LSQ: 2 IQ: 0 IPC: 0.0001
TH1 ROB: 106 LSQ: 87 IQ: 96, IPC: 2.1958
TH2 ROB: 4 LSQ: 2 IQ: 0, IPC: 0.0001
TH3 ROB: 4 LSQ: 2 IQ: 0, IPC: 0.0001
EPOCH ENDS
EPOCH STARTS
TH0 ROB: 4 LSQ: 2 IQ: 0 IPC: 0.0001
TH1 ROB: 105 LSQ: 87 IQ: 96, IPC: 2.1958
TH2 ROB: 4 LSQ: 2 IQ: 0, IPC: 0.0001
TH3 ROB: 4 LSQ: 2 IQ: 0, IPC: 0.0001
EPOCH ENDS
EPOCH STARTS
TH0 ROB: 4 LSQ: 2 IQ: 0 IPC: 0.0001
TH1 ROB: 105 LSQ: 86 IQ: 96, IPC: 2.1958
TH2 ROB: 4 LSQ: 2 IQ: 0, IPC: 0.0001
TH3 ROB: 4 LSQ: 2 IQ: 0, IPC: 0.0001
EPOCH ENDS
EPOCH STARTS
TH0 ROB: 4 LSQ: 2 IQ: 0 IPC: 0.0001
TH1 ROB: 105 LSQ: 86 IQ: 96, IPC: 2.1958
TH2 ROB: 4 LSQ: 2 IQ: 0, IPC: 0.0001
TH3 ROB: 4 LSQ: 2 IQ: 0, IPC: 0.0001
EPOCH ENDS
EPOCH STARTS
TH0 ROB: 4 LSQ: 2 IQ: 0 IPC: 0.0001
TH1 ROB: 105 LSQ: 86 IQ: 96, IPC: 2.1958
TH2 ROB: 4 LSQ: 2 IQ: 0, IPC: 0.0001
TH3 ROB: 4 LSQ: 2 IQ: 0, IPC: 0.0001
EPOCH ENDS
EPOCH STARTS
TH0 ROB: 4 LSQ: 2 IQ: 0 IPC: 0.0001
TH1 ROB: 105 LSQ: 86 IQ: 96, IPC: 2.1958
TH2 ROB: 4 LSQ: 2 IQ: 0, IPC: 0.0001
TH3 ROB: 4 LSQ: 2 IQ: 0, IPC: 0.0001
EPOCH ENDS
EPOCH STARTS
TH0 ROB: 4 LSQ: 2 IQ: 0 IPC: 0.0001
TH1 ROB: 105 LSQ: 87 IQ: 96, IPC: 2.1958
TH2 ROB: 4 LSQ: 2 IQ: 0, IPC: 0.0001
TH3 ROB: 4 LSQ: 2 IQ: 0, IPC: 0.0001
EPOCH ENDS
EPOCH STARTS
TH0 ROB: 4 LSQ: 2 IQ: 0 IPC: 0.0001
TH1 ROB: 105 LSQ: 86 IQ: 96, IPC: 2.1959
TH2 ROB: 4 LSQ: 2 IQ: 0, IPC: 0.0001
TH3 ROB: 4 LSQ: 2 IQ: 0, IPC: 0.0001
EPOCH ENDS
EPOCH STARTS
TH0 ROB: 4 LSQ: 2 IQ: 0 IPC: 0.0001
TH1 ROB: 105 LSQ: 86 IQ: 96, IPC: 2.1959
TH2 ROB: 4 LSQ: 2 IQ: 0, IPC: 0.0001
TH3 ROB: 4 LSQ: 2 IQ: 0, IPC: 0.0001
EPOCH ENDS
EPOCH STARTS
TH0 ROB: 4 LSQ: 2 IQ: 0 IPC: 0.0001
TH1 ROB: 105 LSQ: 86 IQ: 96, IPC: 2.1959
TH2 ROB: 4 LSQ: 2 IQ: 0, IPC: 0.0001
TH3 ROB: 4 LSQ: 2 IQ: 0, IPC: 0.0001
EPOCH ENDS
EPOCH STARTS
TH0 ROB: 4 LSQ: 2 IQ: 0 IPC: 0.0001
TH1 ROB: 105 LSQ: 87 IQ: 96, IPC: 2.1959
TH2 ROB: 4 LSQ: 2 IQ: 0, IPC: 0.0001
TH3 ROB: 4 LSQ: 2 IQ: 0, IPC: 0.0001
EPOCH ENDS
EPOCH STARTS
TH0 ROB: 4 LSQ: 2 IQ: 0 IPC: 0.0001
TH1 ROB: 105 LSQ: 88 IQ: 96, IPC: 2.1959
TH2 ROB: 4 LSQ: 2 IQ: 0, IPC: 0.0001
TH3 ROB: 4 LSQ: 2 IQ: 0, IPC: 0.0001
EPOCH ENDS
EPOCH STARTS
TH0 ROB: 4 LSQ: 2 IQ: 0 IPC: 0.0001
TH1 ROB: 104 LSQ: 85 IQ: 96, IPC: 2.1959
TH2 ROB: 4 LSQ: 2 IQ: 0, IPC: 0.0001
TH3 ROB: 4 LSQ: 2 IQ: 0, IPC: 0.0001
EPOCH ENDS
EPOCH STARTS
TH0 ROB: 4 LSQ: 2 IQ: 0 IPC: 0.0001
TH1 ROB: 104 LSQ: 85 IQ: 96, IPC: 2.1959
TH2 ROB: 4 LSQ: 2 IQ: 0, IPC: 0.0001
TH3 ROB: 4 LSQ: 2 IQ: 0, IPC: 0.0001
EPOCH ENDS
EPOCH STARTS
TH0 ROB: 4 LSQ: 2 IQ: 0 IPC: 0.0001
TH1 ROB: 105 LSQ: 86 IQ: 96, IPC: 2.1959
TH2 ROB: 4 LSQ: 2 IQ: 0, IPC: 0.0001
TH3 ROB: 4 LSQ: 2 IQ: 0, IPC: 0.0001
EPOCH ENDS
EPOCH STARTS
TH0 ROB: 4 LSQ: 0 IQ: 0 IPC: 0.0015
TH1 ROB: 4 LSQ: 1 IQ: 0, IPC: 2.1810
TH2 ROB: 105 LSQ: 87 IQ: 96, IPC: 0.0117
TH3 ROB: 4 LSQ: 2 IQ: 0, IPC: 0.0023
EPOCH ENDS
EPOCH STARTS
TH0 ROB: 4 LSQ: 0 IQ: 0 IPC: 0.0015
TH1 ROB: 4 LSQ: 1 IQ: 0, IPC: 2.1560
TH2 ROB: 105 LSQ: 87 IQ: 96, IPC: 0.0369
TH3 ROB: 4 LSQ: 2 IQ: 0, IPC: 0.0023
EPOCH ENDS
EPOCH STARTS
TH0 ROB: 4 LSQ: 0 IQ: 0 IPC: 0.0014
TH1 ROB: 4 LSQ: 1 IQ: 0, IPC: 2.1315
TH2 ROB: 106 LSQ: 87 IQ: 96, IPC: 0.0614
TH3 ROB: 4 LSQ: 2 IQ: 0, IPC: 0.0023
EPOCH ENDS
EPOCH STARTS
TH0 ROB: 4 LSQ: 0 IQ: 0 IPC: 0.0014
TH1 ROB: 4 LSQ: 1 IQ: 0, IPC: 2.1075
TH2 ROB: 104 LSQ: 85 IQ: 96, IPC: 0.0854
TH3 ROB: 4 LSQ: 2 IQ: 0, IPC: 0.0023
EPOCH ENDS
EPOCH STARTS
TH0 ROB: 4 LSQ: 0 IQ: 0 IPC: 0.0014
TH1 ROB: 4 LSQ: 1 IQ: 0, IPC: 2.0841
TH2 ROB: 104 LSQ: 85 IQ: 96, IPC: 0.1088
TH3 ROB: 4 LSQ: 2 IQ: 0, IPC: 0.0022
EPOCH ENDS
EPOCH STARTS
TH0 ROB: 4 LSQ: 0 IQ: 0 IPC: 0.0014
TH1 ROB: 4 LSQ: 1 IQ: 0, IPC: 2.0612
TH2 ROB: 105 LSQ: 87 IQ: 96, IPC: 0.1318
TH3 ROB: 4 LSQ: 2 IQ: 0, IPC: 0.0022
EPOCH ENDS
EPOCH STARTS
TH0 ROB: 4 LSQ: 0 IQ: 0 IPC: 0.0014
TH1 ROB: 4 LSQ: 1 IQ: 0, IPC: 2.0388
TH2 ROB: 106 LSQ: 87 IQ: 96, IPC: 0.1542
TH3 ROB: 4 LSQ: 2 IQ: 0, IPC: 0.0022
EPOCH ENDS
EPOCH STARTS
TH0 ROB: 4 LSQ: 0 IQ: 0 IPC: 0.0014
TH1 ROB: 4 LSQ: 1 IQ: 0, IPC: 2.0169
TH2 ROB: 106 LSQ: 87 IQ: 96, IPC: 0.1762
TH3 ROB: 4 LSQ: 2 IQ: 0, IPC: 0.0022
EPOCH ENDS
EPOCH STARTS
TH0 ROB: 4 LSQ: 0 IQ: 0 IPC: 0.0014
TH1 ROB: 4 LSQ: 1 IQ: 0, IPC: 1.9954
TH2 ROB: 106 LSQ: 87 IQ: 96, IPC: 0.1976
TH3 ROB: 4 LSQ: 2 IQ: 0, IPC: 0.0021
EPOCH ENDS
EPOCH STARTS
TH0 ROB: 4 LSQ: 0 IQ: 0 IPC: 0.0013
TH1 ROB: 4 LSQ: 1 IQ: 0, IPC: 1.9744
TH2 ROB: 104 LSQ: 86 IQ: 96, IPC: 0.2187
TH3 ROB: 4 LSQ: 2 IQ: 0, IPC: 0.0021
EPOCH ENDS
EPOCH STARTS
TH0 ROB: 4 LSQ: 0 IQ: 0 IPC: 0.0013
TH1 ROB: 4 LSQ: 1 IQ: 0, IPC: 1.9538
TH2 ROB: 104 LSQ: 87 IQ: 96, IPC: 0.2393
TH3 ROB: 4 LSQ: 2 IQ: 0, IPC: 0.0021
EPOCH ENDS
EPOCH STARTS
TH0 ROB: 4 LSQ: 0 IQ: 0 IPC: 0.0013
TH1 ROB: 4 LSQ: 1 IQ: 0, IPC: 1.9337
TH2 ROB: 105 LSQ: 86 IQ: 96, IPC: 0.2595
TH3 ROB: 4 LSQ: 2 IQ: 0, IPC: 0.0021
EPOCH ENDS
EPOCH STARTS
TH0 ROB: 4 LSQ: 0 IQ: 0 IPC: 0.0013
TH1 ROB: 4 LSQ: 1 IQ: 0, IPC: 1.9140
TH2 ROB: 105 LSQ: 86 IQ: 96, IPC: 0.2792
TH3 ROB: 4 LSQ: 2 IQ: 0, IPC: 0.0020
EPOCH ENDS
EPOCH STARTS
TH0 ROB: 4 LSQ: 0 IQ: 0 IPC: 0.0013
TH1 ROB: 4 LSQ: 1 IQ: 0, IPC: 1.8946
TH2 ROB: 106 LSQ: 87 IQ: 96, IPC: 0.2986
TH3 ROB: 4 LSQ: 2 IQ: 0, IPC: 0.0020
EPOCH ENDS
EPOCH STARTS
TH0 ROB: 4 LSQ: 0 IQ: 0 IPC: 0.0013
TH1 ROB: 4 LSQ: 1 IQ: 0, IPC: 1.8757
TH2 ROB: 105 LSQ: 87 IQ: 96, IPC: 0.3176
TH3 ROB: 4 LSQ: 2 IQ: 0, IPC: 0.0020
EPOCH ENDS
EPOCH STARTS
TH0 ROB: 4 LSQ: 0 IQ: 0 IPC: 0.0013
TH1 ROB: 4 LSQ: 1 IQ: 0, IPC: 1.8571
TH2 ROB: 105 LSQ: 86 IQ: 96, IPC: 0.3362
TH3 ROB: 4 LSQ: 2 IQ: 0, IPC: 0.0020
EPOCH ENDS
EPOCH STARTS
TH0 ROB: 4 LSQ: 0 IQ: 0 IPC: 0.0012
TH1 ROB: 4 LSQ: 1 IQ: 0, IPC: 1.8389
TH2 ROB: 105 LSQ: 86 IQ: 96, IPC: 0.3544
TH3 ROB: 4 LSQ: 2 IQ: 0, IPC: 0.0020
EPOCH ENDS
EPOCH STARTS
TH0 ROB: 4 LSQ: 0 IQ: 0 IPC: 0.0012
TH1 ROB: 4 LSQ: 1 IQ: 0, IPC: 1.8210
TH2 ROB: 105 LSQ: 86 IQ: 96, IPC: 0.3723
TH3 ROB: 4 LSQ: 2 IQ: 0, IPC: 0.0019
EPOCH ENDS
EPOCH STARTS
TH0 ROB: 4 LSQ: 0 IQ: 0 IPC: 0.0012
TH1 ROB: 4 LSQ: 1 IQ: 0, IPC: 1.8035
TH2 ROB: 105 LSQ: 86 IQ: 96, IPC: 0.3898
TH3 ROB: 4 LSQ: 2 IQ: 0, IPC: 0.0019
EPOCH ENDS
EPOCH STARTS
TH0 ROB: 4 LSQ: 0 IQ: 0 IPC: 0.0012
TH1 ROB: 4 LSQ: 1 IQ: 0, IPC: 1.7864
TH2 ROB: 105 LSQ: 87 IQ: 96, IPC: 0.4070
TH3 ROB: 4 LSQ: 2 IQ: 0, IPC: 0.0019
EPOCH ENDS
EPOCH STARTS
TH0 ROB: 4 LSQ: 0 IQ: 0 IPC: 0.0012
TH1 ROB: 4 LSQ: 1 IQ: 0, IPC: 1.7695
TH2 ROB: 105 LSQ: 86 IQ: 96, IPC: 0.4239
TH3 ROB: 4 LSQ: 2 IQ: 0, IPC: 0.0019
EPOCH ENDS
EPOCH STARTS
TH0 ROB: 4 LSQ: 0 IQ: 0 IPC: 0.0012
TH1 ROB: 4 LSQ: 1 IQ: 0, IPC: 1.7530
TH2 ROB: 105 LSQ: 86 IQ: 96, IPC: 0.4404
TH3 ROB: 4 LSQ: 2 IQ: 0, IPC: 0.0019
EPOCH ENDS
EPOCH STARTS
TH0 ROB: 4 LSQ: 0 IQ: 0 IPC: 0.0012
TH1 ROB: 4 LSQ: 1 IQ: 0, IPC: 1.7367
TH2 ROB: 105 LSQ: 86 IQ: 96, IPC: 0.4567
TH3 ROB: 4 LSQ: 2 IQ: 0, IPC: 0.0019
EPOCH ENDS
EPOCH STARTS
TH0 ROB: 4 LSQ: 0 IQ: 0 IPC: 0.0012
TH1 ROB: 4 LSQ: 1 IQ: 0, IPC: 1.7208
TH2 ROB: 105 LSQ: 87 IQ: 96, IPC: 0.4727
TH3 ROB: 4 LSQ: 2 IQ: 0, IPC: 0.0018
EPOCH ENDS
EPOCH STARTS
TH0 ROB: 4 LSQ: 0 IQ: 0 IPC: 0.0012
TH1 ROB: 4 LSQ: 1 IQ: 0, IPC: 1.7052
TH2 ROB: 105 LSQ: 88 IQ: 96, IPC: 0.4883
TH3 ROB: 4 LSQ: 2 IQ: 0, IPC: 0.0018
EPOCH ENDS
EPOCH STARTS
TH0 ROB: 4 LSQ: 0 IQ: 0 IPC: 0.0011
TH1 ROB: 4 LSQ: 1 IQ: 0, IPC: 1.6898
TH2 ROB: 104 LSQ: 85 IQ: 96, IPC: 0.5037
TH3 ROB: 4 LSQ: 2 IQ: 0, IPC: 0.0018
EPOCH ENDS
EPOCH STARTS
TH0 ROB: 4 LSQ: 0 IQ: 0 IPC: 0.0011
TH1 ROB: 4 LSQ: 1 IQ: 0, IPC: 1.6747
TH2 ROB: 104 LSQ: 85 IQ: 96, IPC: 0.5188
TH3 ROB: 4 LSQ: 2 IQ: 0, IPC: 0.0018
EPOCH ENDS
EPOCH STARTS
TH0 ROB: 4 LSQ: 0 IQ: 0 IPC: 0.0011
TH1 ROB: 4 LSQ: 1 IQ: 0, IPC: 1.6599
TH2 ROB: 105 LSQ: 86 IQ: 96, IPC: 0.5337
TH3 ROB: 4 LSQ: 2 IQ: 0, IPC: 0.0018
EPOCH ENDS
EPOCH STARTS
TH0 ROB: 4 LSQ: 0 IQ: 0 IPC: 0.0011
TH1 ROB: 4 LSQ: 1 IQ: 0, IPC: 1.6453
TH2 ROB: 105 LSQ: 87 IQ: 96, IPC: 0.5482
TH3 ROB: 4 LSQ: 2 IQ: 0, IPC: 0.0018
EPOCH ENDS
EPOCH STARTS
TH0 ROB: 4 LSQ: 0 IQ: 0 IPC: 0.0011
TH1 ROB: 4 LSQ: 1 IQ: 0, IPC: 1.6310
TH2 ROB: 106 LSQ: 87 IQ: 96, IPC: 0.5626
TH3 ROB: 4 LSQ: 2 IQ: 0, IPC: 0.0017
EPOCH ENDS
EPOCH STARTS
TH0 ROB: 4 LSQ: 0 IQ: 0 IPC: 0.0011
TH1 ROB: 4 LSQ: 1 IQ: 0, IPC: 1.6170
TH2 ROB: 104 LSQ: 85 IQ: 96, IPC: 0.5767
TH3 ROB: 4 LSQ: 2 IQ: 0, IPC: 0.0017
EPOCH ENDS
EPOCH STARTS
TH0 ROB: 4 LSQ: 0 IQ: 0 IPC: 0.0011
TH1 ROB: 4 LSQ: 1 IQ: 0, IPC: 1.6031
TH2 ROB: 104 LSQ: 85 IQ: 96, IPC: 0.5905
TH3 ROB: 4 LSQ: 2 IQ: 0, IPC: 0.0017
EPOCH ENDS
EPOCH STARTS
TH0 ROB: 4 LSQ: 0 IQ: 0 IPC: 0.0011
TH1 ROB: 4 LSQ: 1 IQ: 0, IPC: 1.5896
TH2 ROB: 104 LSQ: 85 IQ: 96, IPC: 0.6041
TH3 ROB: 4 LSQ: 2 IQ: 0, IPC: 0.0017
EPOCH ENDS
EPOCH STARTS
TH0 ROB: 4 LSQ: 0 IQ: 0 IPC: 0.0011
TH1 ROB: 4 LSQ: 1 IQ: 0, IPC: 1.5762
TH2 ROB: 105 LSQ: 87 IQ: 96, IPC: 0.6175
TH3 ROB: 4 LSQ: 2 IQ: 0, IPC: 0.0017
EPOCH ENDS
EPOCH STARTS
TH0 ROB: 4 LSQ: 0 IQ: 0 IPC: 0.0011
TH1 ROB: 4 LSQ: 1 IQ: 0, IPC: 1.5631
TH2 ROB: 105 LSQ: 86 IQ: 96, IPC: 0.6306
TH3 ROB: 4 LSQ: 2 IQ: 0, IPC: 0.0017
EPOCH ENDS
EPOCH STARTS
TH0 ROB: 4 LSQ: 0 IQ: 0 IPC: 0.0010
TH1 ROB: 4 LSQ: 1 IQ: 0, IPC: 1.5501
TH2 ROB: 104 LSQ: 85 IQ: 96, IPC: 0.6436
TH3 ROB: 4 LSQ: 2 IQ: 0, IPC: 0.0017
EPOCH ENDS
EPOCH STARTS
TH0 ROB: 4 LSQ: 0 IQ: 0 IPC: 0.0010
TH1 ROB: 4 LSQ: 1 IQ: 0, IPC: 1.5374
TH2 ROB: 104 LSQ: 85 IQ: 96, IPC: 0.6563
TH3 ROB: 4 LSQ: 2 IQ: 0, IPC: 0.0016
EPOCH ENDS
EPOCH STARTS
TH0 ROB: 4 LSQ: 0 IQ: 0 IPC: 0.0010
TH1 ROB: 4 LSQ: 1 IQ: 0, IPC: 1.5249
TH2 ROB: 104 LSQ: 87 IQ: 96, IPC: 0.6688
TH3 ROB: 4 LSQ: 2 IQ: 0, IPC: 0.0016
EPOCH ENDS
EPOCH STARTS
TH0 ROB: 4 LSQ: 0 IQ: 0 IPC: 0.0010
TH1 ROB: 4 LSQ: 1 IQ: 0, IPC: 1.5126
TH2 ROB: 105 LSQ: 87 IQ: 96, IPC: 0.6811
TH3 ROB: 4 LSQ: 2 IQ: 0, IPC: 0.0016
EPOCH ENDS
EPOCH STARTS
TH0 ROB: 4 LSQ: 0 IQ: 0 IPC: 0.0010
TH1 ROB: 4 LSQ: 1 IQ: 0, IPC: 1.5005
TH2 ROB: 105 LSQ: 85 IQ: 96, IPC: 0.6933
TH3 ROB: 4 LSQ: 2 IQ: 0, IPC: 0.0016
EPOCH ENDS
EPOCH STARTS
TH0 ROB: 4 LSQ: 0 IQ: 0 IPC: 0.0010
TH1 ROB: 4 LSQ: 1 IQ: 0, IPC: 1.4886
TH2 ROB: 104 LSQ: 85 IQ: 96, IPC: 0.7052
TH3 ROB: 4 LSQ: 2 IQ: 0, IPC: 0.0016
EPOCH ENDS
EPOCH STARTS
TH0 ROB: 4 LSQ: 0 IQ: 0 IPC: 0.0010
TH1 ROB: 4 LSQ: 1 IQ: 0, IPC: 1.4769
TH2 ROB: 104 LSQ: 85 IQ: 96, IPC: 0.7169
TH3 ROB: 4 LSQ: 2 IQ: 0, IPC: 0.0016
EPOCH ENDS
EPOCH STARTS
TH0 ROB: 4 LSQ: 0 IQ: 0 IPC: 0.0010
TH1 ROB: 4 LSQ: 1 IQ: 0, IPC: 1.4654
TH2 ROB: 104 LSQ: 86 IQ: 96, IPC: 0.7285
TH3 ROB: 4 LSQ: 2 IQ: 0, IPC: 0.0016
EPOCH ENDS
EPOCH STARTS
TH0 ROB: 4 LSQ: 0 IQ: 0 IPC: 0.0010
TH1 ROB: 4 LSQ: 1 IQ: 0, IPC: 1.4540
TH2 ROB: 107 LSQ: 88 IQ: 96, IPC: 0.7399
TH3 ROB: 4 LSQ: 2 IQ: 0, IPC: 0.0016
EPOCH ENDS
EPOCH STARTS
TH0 ROB: 4 LSQ: 0 IQ: 0 IPC: 0.0010
TH1 ROB: 4 LSQ: 1 IQ: 0, IPC: 1.4428
TH2 ROB: 105 LSQ: 86 IQ: 96, IPC: 0.7511
TH3 ROB: 4 LSQ: 2 IQ: 0, IPC: 0.0015
EPOCH ENDS
EPOCH STARTS
TH0 ROB: 4 LSQ: 0 IQ: 0 IPC: 0.0010
TH1 ROB: 4 LSQ: 1 IQ: 0, IPC: 1.4318
TH2 ROB: 105 LSQ: 85 IQ: 96, IPC: 0.7621
TH3 ROB: 4 LSQ: 2 IQ: 0, IPC: 0.0015
EPOCH ENDS
EPOCH STARTS
TH0 ROB: 4 LSQ: 0 IQ: 0 IPC: 0.0010
TH1 ROB: 4 LSQ: 1 IQ: 0, IPC: 1.4210
TH2 ROB: 104 LSQ: 85 IQ: 96, IPC: 0.7730
TH3 ROB: 4 LSQ: 2 IQ: 0, IPC: 0.0015
EPOCH ENDS
EPOCH STARTS
TH0 ROB: 4 LSQ: 0 IQ: 0 IPC: 0.0010
TH1 ROB: 4 LSQ: 1 IQ: 0, IPC: 1.4103
TH2 ROB: 105 LSQ: 87 IQ: 96, IPC: 0.7837
TH3 ROB: 4 LSQ: 2 IQ: 0, IPC: 0.0015
EPOCH ENDS
EPOCH STARTS
TH0 ROB: 4 LSQ: 0 IQ: 0 IPC: 0.0009
TH1 ROB: 4 LSQ: 1 IQ: 0, IPC: 1.3998
TH2 ROB: 105 LSQ: 86 IQ: 96, IPC: 0.7942
TH3 ROB: 4 LSQ: 2 IQ: 0, IPC: 0.0015
EPOCH ENDS
EPOCH STARTS
TH0 ROB: 4 LSQ: 0 IQ: 0 IPC: 0.0009
TH1 ROB: 4 LSQ: 1 IQ: 0, IPC: 1.3894
TH2 ROB: 104 LSQ: 85 IQ: 96, IPC: 0.8046
TH3 ROB: 4 LSQ: 2 IQ: 0, IPC: 0.0015
EPOCH ENDS
EPOCH STARTS
TH0 ROB: 4 LSQ: 0 IQ: 0 IPC: 0.0009
TH1 ROB: 4 LSQ: 1 IQ: 0, IPC: 1.3792
TH2 ROB: 105 LSQ: 86 IQ: 96, IPC: 0.8148
TH3 ROB: 4 LSQ: 2 IQ: 0, IPC: 0.0015
EPOCH ENDS
EPOCH STARTS
TH0 ROB: 4 LSQ: 0 IQ: 0 IPC: 0.0009
TH1 ROB: 4 LSQ: 1 IQ: 0, IPC: 1.3691
TH2 ROB: 105 LSQ: 87 IQ: 96, IPC: 0.8249
TH3 ROB: 4 LSQ: 2 IQ: 0, IPC: 0.0015
EPOCH ENDS
EPOCH STARTS
TH0 ROB: 4 LSQ: 0 IQ: 0 IPC: 0.0009
TH1 ROB: 4 LSQ: 1 IQ: 0, IPC: 1.3592
TH2 ROB: 105 LSQ: 87 IQ: 96, IPC: 0.8348
TH3 ROB: 4 LSQ: 2 IQ: 0, IPC: 0.0015
EPOCH ENDS
EPOCH STARTS
TH0 ROB: 4 LSQ: 0 IQ: 0 IPC: 0.0009
TH1 ROB: 4 LSQ: 1 IQ: 0, IPC: 1.3494
TH2 ROB: 106 LSQ: 87 IQ: 96, IPC: 0.8446
TH3 ROB: 4 LSQ: 2 IQ: 0, IPC: 0.0014
EPOCH ENDS
EPOCH STARTS
TH0 ROB: 4 LSQ: 0 IQ: 0 IPC: 0.0009
TH1 ROB: 4 LSQ: 1 IQ: 0, IPC: 1.3398
TH2 ROB: 104 LSQ: 85 IQ: 96, IPC: 0.8543
TH3 ROB: 4 LSQ: 2 IQ: 0, IPC: 0.0014
EPOCH ENDS
EPOCH STARTS
TH0 ROB: 4 LSQ: 0 IQ: 0 IPC: 0.0009
TH1 ROB: 4 LSQ: 1 IQ: 0, IPC: 1.3303
TH2 ROB: 104 LSQ: 85 IQ: 96, IPC: 0.8638
TH3 ROB: 4 LSQ: 2 IQ: 0, IPC: 0.0014
EPOCH ENDS
EPOCH STARTS
TH0 ROB: 4 LSQ: 0 IQ: 0 IPC: 0.0009
TH1 ROB: 4 LSQ: 1 IQ: 0, IPC: 1.3209
TH2 ROB: 105 LSQ: 87 IQ: 96, IPC: 0.8732
TH3 ROB: 4 LSQ: 2 IQ: 0, IPC: 0.0014
EPOCH ENDS
EPOCH STARTS
TH0 ROB: 4 LSQ: 0 IQ: 0 IPC: 0.0009
TH1 ROB: 4 LSQ: 1 IQ: 0, IPC: 1.3117
TH2 ROB: 106 LSQ: 87 IQ: 96, IPC: 0.8824
TH3 ROB: 4 LSQ: 2 IQ: 0, IPC: 0.0014
EPOCH ENDS
EPOCH STARTS
TH0 ROB: 4 LSQ: 0 IQ: 0 IPC: 0.0009
TH1 ROB: 4 LSQ: 1 IQ: 0, IPC: 1.3026
TH2 ROB: 106 LSQ: 87 IQ: 96, IPC: 0.8915
TH3 ROB: 4 LSQ: 2 IQ: 0, IPC: 0.0014
EPOCH ENDS
EPOCH STARTS
TH0 ROB: 4 LSQ: 0 IQ: 0 IPC: 0.0009
TH1 ROB: 4 LSQ: 1 IQ: 0, IPC: 1.2936
TH2 ROB: 106 LSQ: 87 IQ: 96, IPC: 0.9005
TH3 ROB: 4 LSQ: 2 IQ: 0, IPC: 0.0014
EPOCH ENDS
EPOCH STARTS
TH0 ROB: 4 LSQ: 0 IQ: 0 IPC: 0.0009
TH1 ROB: 4 LSQ: 1 IQ: 0, IPC: 1.2847
TH2 ROB: 104 LSQ: 86 IQ: 96, IPC: 0.9094
TH3 ROB: 4 LSQ: 2 IQ: 0, IPC: 0.0014
EPOCH ENDS
EPOCH STARTS
TH0 ROB: 4 LSQ: 0 IQ: 0 IPC: 0.0009
TH1 ROB: 4 LSQ: 1 IQ: 0, IPC: 1.2760
TH2 ROB: 104 LSQ: 87 IQ: 96, IPC: 0.9182
TH3 ROB: 4 LSQ: 2 IQ: 0, IPC: 0.0014
EPOCH ENDS
EPOCH STARTS
TH0 ROB: 4 LSQ: 0 IQ: 0 IPC: 0.0009
TH1 ROB: 4 LSQ: 1 IQ: 0, IPC: 1.2674
TH2 ROB: 105 LSQ: 86 IQ: 96, IPC: 0.9268
TH3 ROB: 4 LSQ: 2 IQ: 0, IPC: 0.0014
EPOCH ENDS
EPOCH STARTS
TH0 ROB: 4 LSQ: 0 IQ: 0 IPC: 0.0009
TH1 ROB: 4 LSQ: 1 IQ: 0, IPC: 1.2588
TH2 ROB: 105 LSQ: 86 IQ: 96, IPC: 0.9353
TH3 ROB: 4 LSQ: 2 IQ: 0, IPC: 0.0013
EPOCH ENDS
EPOCH STARTS
TH0 ROB: 4 LSQ: 0 IQ: 0 IPC: 0.0008
TH1 ROB: 4 LSQ: 1 IQ: 0, IPC: 1.2505
TH2 ROB: 106 LSQ: 87 IQ: 96, IPC: 0.9437
TH3 ROB: 4 LSQ: 2 IQ: 0, IPC: 0.0013
EPOCH ENDS
EPOCH STARTS
TH0 ROB: 4 LSQ: 0 IQ: 0 IPC: 0.0008
TH1 ROB: 4 LSQ: 1 IQ: 0, IPC: 1.2422
TH2 ROB: 105 LSQ: 87 IQ: 96, IPC: 0.9520
TH3 ROB: 4 LSQ: 2 IQ: 0, IPC: 0.0013
EPOCH ENDS
EPOCH STARTS
TH0 ROB: 4 LSQ: 0 IQ: 0 IPC: 0.0008
TH1 ROB: 4 LSQ: 1 IQ: 0, IPC: 1.2340
TH2 ROB: 105 LSQ: 86 IQ: 96, IPC: 0.9602
TH3 ROB: 4 LSQ: 2 IQ: 0, IPC: 0.0013
EPOCH ENDS
EPOCH STARTS
TH0 ROB: 4 LSQ: 0 IQ: 0 IPC: 0.0008
TH1 ROB: 4 LSQ: 1 IQ: 0, IPC: 1.2259
TH2 ROB: 105 LSQ: 86 IQ: 96, IPC: 0.9683
TH3 ROB: 4 LSQ: 2 IQ: 0, IPC: 0.0013
EPOCH ENDS
EPOCH STARTS
TH0 ROB: 4 LSQ: 0 IQ: 0 IPC: 0.0008
TH1 ROB: 4 LSQ: 1 IQ: 0, IPC: 1.2180
TH2 ROB: 105 LSQ: 86 IQ: 96, IPC: 0.9763
TH3 ROB: 4 LSQ: 2 IQ: 0, IPC: 0.0013
EPOCH ENDS
EPOCH STARTS
TH0 ROB: 4 LSQ: 0 IQ: 0 IPC: 0.0008
TH1 ROB: 4 LSQ: 1 IQ: 0, IPC: 1.2101
TH2 ROB: 105 LSQ: 86 IQ: 96, IPC: 0.9841
TH3 ROB: 4 LSQ: 2 IQ: 0, IPC: 0.0013
EPOCH ENDS
EPOCH STARTS
TH0 ROB: 4 LSQ: 0 IQ: 0 IPC: 0.0008
TH1 ROB: 4 LSQ: 1 IQ: 0, IPC: 1.2024
TH2 ROB: 105 LSQ: 87 IQ: 96, IPC: 0.9919
TH3 ROB: 4 LSQ: 2 IQ: 0, IPC: 0.0013
EPOCH ENDS
EPOCH STARTS
TH0 ROB: 4 LSQ: 0 IQ: 0 IPC: 0.0008
TH1 ROB: 4 LSQ: 1 IQ: 0, IPC: 1.1947
TH2 ROB: 105 LSQ: 86 IQ: 96, IPC: 0.9996
TH3 ROB: 4 LSQ: 2 IQ: 0, IPC: 0.0013
EPOCH ENDS
EPOCH STARTS
TH0 ROB: 4 LSQ: 0 IQ: 0 IPC: 0.0008
TH1 ROB: 4 LSQ: 1 IQ: 0, IPC: 1.1871
TH2 ROB: 105 LSQ: 86 IQ: 96, IPC: 1.0071
TH3 ROB: 4 LSQ: 2 IQ: 0, IPC: 0.0013
EPOCH ENDS
EPOCH STARTS
TH0 ROB: 4 LSQ: 0 IQ: 0 IPC: 0.0008
TH1 ROB: 4 LSQ: 1 IQ: 0, IPC: 1.1797
TH2 ROB: 105 LSQ: 86 IQ: 96, IPC: 1.0146
TH3 ROB: 4 LSQ: 2 IQ: 0, IPC: 0.0013
EPOCH ENDS
EPOCH STARTS
TH0 ROB: 4 LSQ: 0 IQ: 0 IPC: 0.0008
TH1 ROB: 4 LSQ: 1 IQ: 0, IPC: 1.1723
TH2 ROB: 105 LSQ: 87 IQ: 96, IPC: 1.0220
TH3 ROB: 4 LSQ: 2 IQ: 0, IPC: 0.0013
EPOCH ENDS
EPOCH STARTS
TH0 ROB: 4 LSQ: 0 IQ: 0 IPC: 0.0008
TH1 ROB: 4 LSQ: 1 IQ: 0, IPC: 1.1650
TH2 ROB: 105 LSQ: 88 IQ: 96, IPC: 1.0293
TH3 ROB: 4 LSQ: 2 IQ: 0, IPC: 0.0012
EPOCH ENDS
EPOCH STARTS
TH0 ROB: 4 LSQ: 0 IQ: 0 IPC: 0.0008
TH1 ROB: 4 LSQ: 1 IQ: 0, IPC: 1.1578
TH2 ROB: 104 LSQ: 85 IQ: 96, IPC: 1.0365
TH3 ROB: 4 LSQ: 2 IQ: 0, IPC: 0.0012
EPOCH ENDS
EPOCH STARTS
TH0 ROB: 4 LSQ: 0 IQ: 0 IPC: 0.0008
TH1 ROB: 4 LSQ: 1 IQ: 0, IPC: 1.1507
TH2 ROB: 104 LSQ: 85 IQ: 96, IPC: 1.0436
TH3 ROB: 4 LSQ: 2 IQ: 0, IPC: 0.0012
EPOCH ENDS
EPOCH STARTS
TH0 ROB: 4 LSQ: 0 IQ: 0 IPC: 0.0008
TH1 ROB: 4 LSQ: 1 IQ: 0, IPC: 1.1437
TH2 ROB: 105 LSQ: 86 IQ: 96, IPC: 1.0506
TH3 ROB: 4 LSQ: 2 IQ: 0, IPC: 0.0012
EPOCH ENDS
EPOCH STARTS
TH0 ROB: 4 LSQ: 0 IQ: 0 IPC: 0.0008
TH1 ROB: 4 LSQ: 1 IQ: 0, IPC: 1.1368
TH2 ROB: 105 LSQ: 87 IQ: 96, IPC: 1.0576
TH3 ROB: 4 LSQ: 2 IQ: 0, IPC: 0.0012
EPOCH ENDS
EPOCH STARTS
TH0 ROB: 4 LSQ: 0 IQ: 0 IPC: 0.0008
TH1 ROB: 4 LSQ: 1 IQ: 0, IPC: 1.1299
TH2 ROB: 106 LSQ: 87 IQ: 96, IPC: 1.0644
TH3 ROB: 4 LSQ: 2 IQ: 0, IPC: 0.0012
EPOCH ENDS
EPOCH STARTS
TH0 ROB: 4 LSQ: 0 IQ: 0 IPC: 0.0008
TH1 ROB: 4 LSQ: 1 IQ: 0, IPC: 1.1232
TH2 ROB: 104 LSQ: 85 IQ: 96, IPC: 1.0712
TH3 ROB: 4 LSQ: 2 IQ: 0, IPC: 0.0012
EPOCH ENDS
EPOCH STARTS
TH0 ROB: 4 LSQ: 0 IQ: 0 IPC: 0.0008
TH1 ROB: 4 LSQ: 1 IQ: 0, IPC: 1.1165
TH2 ROB: 104 LSQ: 85 IQ: 96, IPC: 1.0779
TH3 ROB: 4 LSQ: 2 IQ: 0, IPC: 0.0012
EPOCH ENDS
EPOCH STARTS
TH0 ROB: 4 LSQ: 0 IQ: 0 IPC: 0.0008
TH1 ROB: 4 LSQ: 1 IQ: 0, IPC: 1.1099
TH2 ROB: 104 LSQ: 85 IQ: 96, IPC: 1.0845
TH3 ROB: 4 LSQ: 2 IQ: 0, IPC: 0.0012
EPOCH ENDS
EPOCH STARTS
TH0 ROB: 4 LSQ: 0 IQ: 0 IPC: 0.0007
TH1 ROB: 4 LSQ: 1 IQ: 0, IPC: 1.1033
TH2 ROB: 105 LSQ: 87 IQ: 96, IPC: 1.0911
TH3 ROB: 4 LSQ: 2 IQ: 0, IPC: 0.0012
EPOCH ENDS
EPOCH STARTS
TH0 ROB: 4 LSQ: 0 IQ: 0 IPC: 0.0007
TH1 ROB: 4 LSQ: 1 IQ: 0, IPC: 1.0969
TH2 ROB: 105 LSQ: 86 IQ: 96, IPC: 1.0975
TH3 ROB: 4 LSQ: 2 IQ: 0, IPC: 0.0012
EPOCH ENDS
EPOCH STARTS
TH0 ROB: 4 LSQ: 0 IQ: 0 IPC: 0.0007
TH1 ROB: 4 LSQ: 1 IQ: 0, IPC: 1.0905
TH2 ROB: 104 LSQ: 85 IQ: 96, IPC: 1.1039
TH3 ROB: 4 LSQ: 2 IQ: 0, IPC: 0.0012
EPOCH ENDS
EPOCH STARTS
TH0 ROB: 4 LSQ: 0 IQ: 0 IPC: 0.0007
TH1 ROB: 4 LSQ: 1 IQ: 0, IPC: 1.0842
TH2 ROB: 104 LSQ: 85 IQ: 96, IPC: 1.1102
TH3 ROB: 4 LSQ: 2 IQ: 0, IPC: 0.0012
EPOCH ENDS
EPOCH STARTS
TH0 ROB: 4 LSQ: 0 IQ: 0 IPC: 0.0007
TH1 ROB: 4 LSQ: 1 IQ: 0, IPC: 1.0780
TH2 ROB: 104 LSQ: 87 IQ: 96, IPC: 1.1165
TH3 ROB: 4 LSQ: 2 IQ: 0, IPC: 0.0012
EPOCH ENDS
EPOCH STARTS
TH0 ROB: 4 LSQ: 0 IQ: 0 IPC: 0.0007
TH1 ROB: 4 LSQ: 1 IQ: 0, IPC: 1.0718
TH2 ROB: 105 LSQ: 87 IQ: 96, IPC: 1.1226
TH3 ROB: 4 LSQ: 2 IQ: 0, IPC: 0.0011
EPOCH ENDS
EPOCH STARTS
TH0 ROB: 4 LSQ: 0 IQ: 0 IPC: 0.0007
TH1 ROB: 4 LSQ: 1 IQ: 0, IPC: 1.0657
TH2 ROB: 105 LSQ: 85 IQ: 96, IPC: 1.1287
TH3 ROB: 4 LSQ: 2 IQ: 0, IPC: 0.0011
EPOCH ENDS
EPOCH STARTS
TH0 ROB: 4 LSQ: 0 IQ: 0 IPC: 0.0007
TH1 ROB: 4 LSQ: 1 IQ: 0, IPC: 1.0597
TH2 ROB: 104 LSQ: 85 IQ: 96, IPC: 1.1348
TH3 ROB: 4 LSQ: 2 IQ: 0, IPC: 0.0011
EPOCH ENDS
EPOCH STARTS
TH0 ROB: 4 LSQ: 0 IQ: 0 IPC: 0.0007
TH1 ROB: 4 LSQ: 1 IQ: 0, IPC: 1.0538
TH2 ROB: 104 LSQ: 85 IQ: 96, IPC: 1.1407
TH3 ROB: 4 LSQ: 2 IQ: 0, IPC: 0.0011
EPOCH ENDS
EPOCH STARTS
TH0 ROB: 4 LSQ: 0 IQ: 0 IPC: 0.0007
TH1 ROB: 4 LSQ: 1 IQ: 0, IPC: 1.0479
TH2 ROB: 104 LSQ: 86 IQ: 96, IPC: 1.1466
TH3 ROB: 4 LSQ: 2 IQ: 0, IPC: 0.0011
EPOCH ENDS
EPOCH STARTS
TH0 ROB: 4 LSQ: 0 IQ: 0 IPC: 0.0007
TH1 ROB: 4 LSQ: 1 IQ: 0, IPC: 1.0420
TH2 ROB: 107 LSQ: 88 IQ: 96, IPC: 1.1525
TH3 ROB: 4 LSQ: 2 IQ: 0, IPC: 0.0011
EPOCH ENDS
EPOCH STARTS
TH0 ROB: 4 LSQ: 0 IQ: 0 IPC: 0.0007
TH1 ROB: 4 LSQ: 1 IQ: 0, IPC: 1.0363
TH2 ROB: 105 LSQ: 86 IQ: 96, IPC: 1.1582
TH3 ROB: 4 LSQ: 2 IQ: 0, IPC: 0.0011
EPOCH ENDS
EPOCH STARTS
TH0 ROB: 4 LSQ: 0 IQ: 0 IPC: 0.0007
TH1 ROB: 4 LSQ: 1 IQ: 0, IPC: 1.0306
TH2 ROB: 105 LSQ: 85 IQ: 96, IPC: 1.1639
TH3 ROB: 4 LSQ: 2 IQ: 0, IPC: 0.0011
EPOCH ENDS
EPOCH STARTS
TH0 ROB: 4 LSQ: 0 IQ: 0 IPC: 0.0007
TH1 ROB: 4 LSQ: 1 IQ: 0, IPC: 1.0250
TH2 ROB: 104 LSQ: 85 IQ: 96, IPC: 1.1696
TH3 ROB: 4 LSQ: 2 IQ: 0, IPC: 0.0011
EPOCH ENDS
EPOCH STARTS
TH0 ROB: 4 LSQ: 0 IQ: 0 IPC: 0.0007
TH1 ROB: 4 LSQ: 1 IQ: 0, IPC: 1.0194
TH2 ROB: 105 LSQ: 87 IQ: 96, IPC: 1.1751
TH3 ROB: 4 LSQ: 2 IQ: 0, IPC: 0.0011
EPOCH ENDS
EPOCH STARTS
TH0 ROB: 4 LSQ: 0 IQ: 0 IPC: 0.0007
TH1 ROB: 4 LSQ: 1 IQ: 0, IPC: 1.0139
TH2 ROB: 105 LSQ: 86 IQ: 96, IPC: 1.1807
TH3 ROB: 4 LSQ: 2 IQ: 0, IPC: 0.0011
EPOCH ENDS
EPOCH STARTS
TH0 ROB: 4 LSQ: 0 IQ: 0 IPC: 0.0007
TH1 ROB: 4 LSQ: 1 IQ: 0, IPC: 1.0084
TH2 ROB: 104 LSQ: 85 IQ: 96, IPC: 1.1861
TH3 ROB: 4 LSQ: 2 IQ: 0, IPC: 0.0011
EPOCH ENDS
EPOCH STARTS
TH0 ROB: 4 LSQ: 0 IQ: 0 IPC: 0.0007
TH1 ROB: 4 LSQ: 1 IQ: 0, IPC: 1.0030
TH2 ROB: 105 LSQ: 86 IQ: 96, IPC: 1.1915
TH3 ROB: 4 LSQ: 2 IQ: 0, IPC: 0.0011
EPOCH ENDS
EPOCH STARTS
TH0 ROB: 4 LSQ: 0 IQ: 0 IPC: 0.0007
TH1 ROB: 4 LSQ: 1 IQ: 0, IPC: 0.9977
TH2 ROB: 105 LSQ: 87 IQ: 96, IPC: 1.1969
TH3 ROB: 4 LSQ: 2 IQ: 0, IPC: 0.0011
EPOCH ENDS
EPOCH STARTS
TH0 ROB: 4 LSQ: 0 IQ: 0 IPC: 0.0007
TH1 ROB: 4 LSQ: 1 IQ: 0, IPC: 0.9924
TH2 ROB: 105 LSQ: 87 IQ: 96, IPC: 1.2021
TH3 ROB: 4 LSQ: 2 IQ: 0, IPC: 0.0011
EPOCH ENDS
EPOCH STARTS
TH0 ROB: 4 LSQ: 0 IQ: 0 IPC: 0.0007
TH1 ROB: 4 LSQ: 1 IQ: 0, IPC: 0.9872
TH2 ROB: 106 LSQ: 87 IQ: 96, IPC: 1.2074
TH3 ROB: 4 LSQ: 2 IQ: 0, IPC: 0.0011
EPOCH ENDS
EPOCH STARTS
TH0 ROB: 4 LSQ: 0 IQ: 0 IPC: 0.0007
TH1 ROB: 4 LSQ: 1 IQ: 0, IPC: 0.9820
TH2 ROB: 104 LSQ: 85 IQ: 96, IPC: 1.2126
TH3 ROB: 4 LSQ: 2 IQ: 0, IPC: 0.0011
EPOCH ENDS
EPOCH STARTS
TH0 ROB: 4 LSQ: 0 IQ: 0 IPC: 0.0007
TH1 ROB: 4 LSQ: 1 IQ: 0, IPC: 0.9769
TH2 ROB: 104 LSQ: 85 IQ: 96, IPC: 1.2177
TH3 ROB: 4 LSQ: 2 IQ: 0, IPC: 0.0010
EPOCH ENDS
EPOCH STARTS
TH0 ROB: 4 LSQ: 0 IQ: 0 IPC: 0.0007
TH1 ROB: 4 LSQ: 1 IQ: 0, IPC: 0.9719
TH2 ROB: 105 LSQ: 87 IQ: 96, IPC: 1.2227
TH3 ROB: 4 LSQ: 2 IQ: 0, IPC: 0.0010
EPOCH ENDS
EPOCH STARTS
TH0 ROB: 4 LSQ: 0 IQ: 0 IPC: 0.0007
TH1 ROB: 4 LSQ: 1 IQ: 0, IPC: 0.9668
TH2 ROB: 106 LSQ: 87 IQ: 96, IPC: 1.2278
TH3 ROB: 4 LSQ: 2 IQ: 0, IPC: 0.0010
EPOCH ENDS
EPOCH STARTS
TH0 ROB: 4 LSQ: 0 IQ: 0 IPC: 0.0007
TH1 ROB: 4 LSQ: 1 IQ: 0, IPC: 0.9619
TH2 ROB: 106 LSQ: 87 IQ: 96, IPC: 1.2327
TH3 ROB: 4 LSQ: 2 IQ: 0, IPC: 0.0010
EPOCH ENDS
EPOCH STARTS
TH0 ROB: 4 LSQ: 0 IQ: 0 IPC: 0.0006
TH1 ROB: 4 LSQ: 1 IQ: 0, IPC: 0.9570
TH2 ROB: 106 LSQ: 87 IQ: 96, IPC: 1.2376
TH3 ROB: 4 LSQ: 2 IQ: 0, IPC: 0.0010
EPOCH ENDS
EPOCH STARTS
TH0 ROB: 4 LSQ: 0 IQ: 0 IPC: 0.0006
TH1 ROB: 4 LSQ: 1 IQ: 0, IPC: 0.9521
TH2 ROB: 104 LSQ: 86 IQ: 96, IPC: 1.2425
TH3 ROB: 4 LSQ: 2 IQ: 0, IPC: 0.0010
EPOCH ENDS
EPOCH STARTS
TH0 ROB: 4 LSQ: 0 IQ: 0 IPC: 0.0006
TH1 ROB: 4 LSQ: 1 IQ: 0, IPC: 0.9473
TH2 ROB: 104 LSQ: 87 IQ: 96, IPC: 1.2473
TH3 ROB: 4 LSQ: 2 IQ: 0, IPC: 0.0010
EPOCH ENDS
EPOCH STARTS
TH0 ROB: 4 LSQ: 0 IQ: 0 IPC: 0.0006
TH1 ROB: 4 LSQ: 1 IQ: 0, IPC: 0.9426
TH2 ROB: 105 LSQ: 86 IQ: 96, IPC: 1.2521
TH3 ROB: 4 LSQ: 2 IQ: 0, IPC: 0.0010
EPOCH ENDS
EPOCH STARTS
TH0 ROB: 4 LSQ: 0 IQ: 0 IPC: 0.0006
TH1 ROB: 4 LSQ: 1 IQ: 0, IPC: 0.9378
TH2 ROB: 105 LSQ: 86 IQ: 96, IPC: 1.2568
TH3 ROB: 4 LSQ: 2 IQ: 0, IPC: 0.0010
EPOCH ENDS
EPOCH STARTS
TH0 ROB: 4 LSQ: 0 IQ: 0 IPC: 0.0006
TH1 ROB: 4 LSQ: 1 IQ: 0, IPC: 0.9332
TH2 ROB: 106 LSQ: 87 IQ: 96, IPC: 1.2615
TH3 ROB: 4 LSQ: 2 IQ: 0, IPC: 0.0010
EPOCH ENDS
EPOCH STARTS
TH0 ROB: 4 LSQ: 0 IQ: 0 IPC: 0.0006
TH1 ROB: 4 LSQ: 1 IQ: 0, IPC: 0.9286
TH2 ROB: 105 LSQ: 87 IQ: 96, IPC: 1.2661
TH3 ROB: 4 LSQ: 2 IQ: 0, IPC: 0.0010
EPOCH ENDS
EPOCH STARTS
TH0 ROB: 4 LSQ: 0 IQ: 0 IPC: 0.0006
TH1 ROB: 4 LSQ: 1 IQ: 0, IPC: 0.9240
TH2 ROB: 105 LSQ: 86 IQ: 96, IPC: 1.2707
TH3 ROB: 4 LSQ: 2 IQ: 0, IPC: 0.0010
EPOCH ENDS
EPOCH STARTS
TH0 ROB: 4 LSQ: 0 IQ: 0 IPC: 0.0006
TH1 ROB: 4 LSQ: 1 IQ: 0, IPC: 0.9195
TH2 ROB: 105 LSQ: 86 IQ: 96, IPC: 1.2752
TH3 ROB: 4 LSQ: 2 IQ: 0, IPC: 0.0010
EPOCH ENDS
EPOCH STARTS
TH0 ROB: 4 LSQ: 0 IQ: 0 IPC: 0.0006
TH1 ROB: 4 LSQ: 1 IQ: 0, IPC: 0.9150
TH2 ROB: 105 LSQ: 86 IQ: 96, IPC: 1.2797
TH3 ROB: 4 LSQ: 2 IQ: 0, IPC: 0.0010
EPOCH ENDS
EPOCH STARTS
TH0 ROB: 4 LSQ: 0 IQ: 0 IPC: 0.0006
TH1 ROB: 4 LSQ: 1 IQ: 0, IPC: 0.9105
TH2 ROB: 105 LSQ: 86 IQ: 96, IPC: 1.2842
TH3 ROB: 4 LSQ: 2 IQ: 0, IPC: 0.0010
EPOCH ENDS
EPOCH STARTS
TH0 ROB: 4 LSQ: 0 IQ: 0 IPC: 0.0006
TH1 ROB: 4 LSQ: 1 IQ: 0, IPC: 0.9061
TH2 ROB: 105 LSQ: 87 IQ: 96, IPC: 1.2886
TH3 ROB: 4 LSQ: 2 IQ: 0, IPC: 0.0010
EPOCH ENDS
EPOCH STARTS
TH0 ROB: 4 LSQ: 0 IQ: 0 IPC: 0.0006
TH1 ROB: 4 LSQ: 1 IQ: 0, IPC: 0.9018
TH2 ROB: 105 LSQ: 86 IQ: 96, IPC: 1.2929
TH3 ROB: 4 LSQ: 2 IQ: 0, IPC: 0.0010
EPOCH ENDS
EPOCH STARTS
TH0 ROB: 4 LSQ: 0 IQ: 0 IPC: 0.0006
TH1 ROB: 4 LSQ: 1 IQ: 0, IPC: 0.8975
TH2 ROB: 105 LSQ: 86 IQ: 96, IPC: 1.2973
TH3 ROB: 4 LSQ: 2 IQ: 0, IPC: 0.0010
EPOCH ENDS
EPOCH STARTS
TH0 ROB: 4 LSQ: 0 IQ: 0 IPC: 0.0006
TH1 ROB: 4 LSQ: 1 IQ: 0, IPC: 0.8932
TH2 ROB: 105 LSQ: 86 IQ: 96, IPC: 1.3015
TH3 ROB: 4 LSQ: 2 IQ: 0, IPC: 0.0010
EPOCH ENDS
EPOCH STARTS
TH0 ROB: 4 LSQ: 0 IQ: 0 IPC: 0.0006
TH1 ROB: 4 LSQ: 1 IQ: 0, IPC: 0.8889
TH2 ROB: 105 LSQ: 87 IQ: 96, IPC: 1.3058
TH3 ROB: 4 LSQ: 2 IQ: 0, IPC: 0.0010
EPOCH ENDS
EPOCH STARTS
TH0 ROB: 4 LSQ: 0 IQ: 0 IPC: 0.0006
TH1 ROB: 4 LSQ: 1 IQ: 0, IPC: 0.8848
TH2 ROB: 105 LSQ: 88 IQ: 96, IPC: 1.3100
TH3 ROB: 4 LSQ: 2 IQ: 0, IPC: 0.0009
EPOCH ENDS
EPOCH STARTS
TH0 ROB: 4 LSQ: 0 IQ: 0 IPC: 0.0006
TH1 ROB: 4 LSQ: 1 IQ: 0, IPC: 0.8806
TH2 ROB: 104 LSQ: 85 IQ: 96, IPC: 1.3141
TH3 ROB: 4 LSQ: 2 IQ: 0, IPC: 0.0009
EPOCH ENDS
EPOCH STARTS
TH0 ROB: 4 LSQ: 0 IQ: 0 IPC: 0.0006
TH1 ROB: 4 LSQ: 1 IQ: 0, IPC: 0.8765
TH2 ROB: 104 LSQ: 85 IQ: 96, IPC: 1.3183
TH3 ROB: 4 LSQ: 2 IQ: 0, IPC: 0.0009
EPOCH ENDS
EPOCH STARTS
TH0 ROB: 4 LSQ: 0 IQ: 0 IPC: 0.0006
TH1 ROB: 4 LSQ: 1 IQ: 0, IPC: 0.8724
TH2 ROB: 105 LSQ: 86 IQ: 96, IPC: 1.3223
TH3 ROB: 4 LSQ: 2 IQ: 0, IPC: 0.0009
EPOCH ENDS
EPOCH STARTS
TH0 ROB: 4 LSQ: 0 IQ: 0 IPC: 0.0006
TH1 ROB: 4 LSQ: 1 IQ: 0, IPC: 0.8684
TH2 ROB: 105 LSQ: 87 IQ: 96, IPC: 1.3264
TH3 ROB: 4 LSQ: 2 IQ: 0, IPC: 0.0009
EPOCH ENDS
EPOCH STARTS
TH0 ROB: 4 LSQ: 0 IQ: 0 IPC: 0.0006
TH1 ROB: 4 LSQ: 1 IQ: 0, IPC: 0.8644
TH2 ROB: 106 LSQ: 87 IQ: 96, IPC: 1.3304
TH3 ROB: 4 LSQ: 2 IQ: 0, IPC: 0.0009
EPOCH ENDS
EPOCH STARTS
TH0 ROB: 4 LSQ: 0 IQ: 0 IPC: 0.0006
TH1 ROB: 4 LSQ: 1 IQ: 0, IPC: 0.8604
TH2 ROB: 104 LSQ: 85 IQ: 96, IPC: 1.3344
TH3 ROB: 4 LSQ: 2 IQ: 0, IPC: 0.0009
EPOCH ENDS
EPOCH STARTS
TH0 ROB: 4 LSQ: 0 IQ: 0 IPC: 0.0006
TH1 ROB: 4 LSQ: 1 IQ: 0, IPC: 0.8565
TH2 ROB: 104 LSQ: 85 IQ: 96, IPC: 1.3383
TH3 ROB: 4 LSQ: 2 IQ: 0, IPC: 0.0009
EPOCH ENDS
EPOCH STARTS
TH0 ROB: 4 LSQ: 0 IQ: 0 IPC: 0.0006
TH1 ROB: 4 LSQ: 1 IQ: 0, IPC: 0.8526
TH2 ROB: 104 LSQ: 85 IQ: 96, IPC: 1.3422
TH3 ROB: 4 LSQ: 2 IQ: 0, IPC: 0.0009
EPOCH ENDS
EPOCH STARTS
TH0 ROB: 4 LSQ: 0 IQ: 0 IPC: 0.0006
TH1 ROB: 4 LSQ: 1 IQ: 0, IPC: 0.8487
TH2 ROB: 105 LSQ: 87 IQ: 96, IPC: 1.3461
TH3 ROB: 4 LSQ: 2 IQ: 0, IPC: 0.0009
EPOCH ENDS
EPOCH STARTS
TH0 ROB: 4 LSQ: 0 IQ: 0 IPC: 0.0006
TH1 ROB: 4 LSQ: 1 IQ: 0, IPC: 0.8449
TH2 ROB: 105 LSQ: 86 IQ: 96, IPC: 1.3499
TH3 ROB: 4 LSQ: 2 IQ: 0, IPC: 0.0009
EPOCH ENDS
EPOCH STARTS
TH0 ROB: 4 LSQ: 0 IQ: 0 IPC: 0.0006
TH1 ROB: 4 LSQ: 1 IQ: 0, IPC: 0.8411
TH2 ROB: 104 LSQ: 85 IQ: 96, IPC: 1.3537
TH3 ROB: 4 LSQ: 2 IQ: 0, IPC: 0.0009
EPOCH ENDS
EPOCH STARTS
TH0 ROB: 4 LSQ: 0 IQ: 0 IPC: 0.0006
TH1 ROB: 4 LSQ: 1 IQ: 0, IPC: 0.8374
TH2 ROB: 104 LSQ: 85 IQ: 96, IPC: 1.3575
TH3 ROB: 4 LSQ: 2 IQ: 0, IPC: 0.0009
EPOCH ENDS
EPOCH STARTS
TH0 ROB: 4 LSQ: 0 IQ: 0 IPC: 0.0006
TH1 ROB: 4 LSQ: 1 IQ: 0, IPC: 0.8336
TH2 ROB: 104 LSQ: 87 IQ: 96, IPC: 1.3612
TH3 ROB: 4 LSQ: 2 IQ: 0, IPC: 0.0009
EPOCH ENDS
EPOCH STARTS
TH0 ROB: 4 LSQ: 0 IQ: 0 IPC: 0.0006
TH1 ROB: 4 LSQ: 1 IQ: 0, IPC: 0.8299
TH2 ROB: 105 LSQ: 87 IQ: 96, IPC: 1.3649
TH3 ROB: 4 LSQ: 2 IQ: 0, IPC: 0.0009
EPOCH ENDS
EPOCH STARTS
TH0 ROB: 4 LSQ: 0 IQ: 0 IPC: 0.0006
TH1 ROB: 4 LSQ: 1 IQ: 0, IPC: 0.8263
TH2 ROB: 105 LSQ: 85 IQ: 96, IPC: 1.3685
TH3 ROB: 4 LSQ: 2 IQ: 0, IPC: 0.0009
EPOCH ENDS
EPOCH STARTS
TH0 ROB: 4 LSQ: 0 IQ: 0 IPC: 0.0006
TH1 ROB: 4 LSQ: 1 IQ: 0, IPC: 0.8227
TH2 ROB: 104 LSQ: 85 IQ: 96, IPC: 1.3722
TH3 ROB: 4 LSQ: 2 IQ: 0, IPC: 0.0009
EPOCH ENDS
EPOCH STARTS
TH0 ROB: 4 LSQ: 0 IQ: 0 IPC: 0.0006
TH1 ROB: 4 LSQ: 1 IQ: 0, IPC: 0.8191
TH2 ROB: 104 LSQ: 85 IQ: 96, IPC: 1.3758
TH3 ROB: 4 LSQ: 2 IQ: 0, IPC: 0.0009
EPOCH ENDS
EPOCH STARTS
TH0 ROB: 4 LSQ: 0 IQ: 0 IPC: 0.0006
TH1 ROB: 4 LSQ: 1 IQ: 0, IPC: 0.8155
TH2 ROB: 104 LSQ: 86 IQ: 96, IPC: 1.3793
TH3 ROB: 4 LSQ: 2 IQ: 0, IPC: 0.0009
EPOCH ENDS
EPOCH STARTS
TH0 ROB: 4 LSQ: 0 IQ: 0 IPC: 0.0005
TH1 ROB: 4 LSQ: 1 IQ: 0, IPC: 0.8120
TH2 ROB: 107 LSQ: 88 IQ: 96, IPC: 1.3829
TH3 ROB: 4 LSQ: 2 IQ: 0, IPC: 0.0009
EPOCH ENDS
EPOCH STARTS
TH0 ROB: 4 LSQ: 0 IQ: 0 IPC: 0.0005
TH1 ROB: 4 LSQ: 1 IQ: 0, IPC: 0.8085
TH2 ROB: 105 LSQ: 86 IQ: 96, IPC: 1.3864
TH3 ROB: 4 LSQ: 2 IQ: 0, IPC: 0.0009
EPOCH ENDS
EPOCH STARTS
TH0 ROB: 4 LSQ: 0 IQ: 0 IPC: 0.0005
TH1 ROB: 4 LSQ: 1 IQ: 0, IPC: 0.8050
TH2 ROB: 105 LSQ: 85 IQ: 96, IPC: 1.3898
TH3 ROB: 4 LSQ: 2 IQ: 0, IPC: 0.0009
EPOCH ENDS
EPOCH STARTS
TH0 ROB: 4 LSQ: 0 IQ: 0 IPC: 0.0005
TH1 ROB: 4 LSQ: 1 IQ: 0, IPC: 0.8016
TH2 ROB: 104 LSQ: 85 IQ: 96, IPC: 1.3933
TH3 ROB: 4 LSQ: 2 IQ: 0, IPC: 0.0009
EPOCH ENDS
EPOCH STARTS
TH0 ROB: 4 LSQ: 0 IQ: 0 IPC: 0.0005
TH1 ROB: 4 LSQ: 1 IQ: 0, IPC: 0.7982
TH2 ROB: 105 LSQ: 87 IQ: 96, IPC: 1.3967
TH3 ROB: 4 LSQ: 2 IQ: 0, IPC: 0.0009
EPOCH ENDS
EPOCH STARTS
TH0 ROB: 4 LSQ: 0 IQ: 0 IPC: 0.0005
TH1 ROB: 4 LSQ: 1 IQ: 0, IPC: 0.7948
TH2 ROB: 105 LSQ: 86 IQ: 96, IPC: 1.4001
TH3 ROB: 4 LSQ: 2 IQ: 0, IPC: 0.0009
EPOCH ENDS
EPOCH STARTS
TH0 ROB: 4 LSQ: 0 IQ: 0 IPC: 0.0005
TH1 ROB: 4 LSQ: 1 IQ: 0, IPC: 0.7914
TH2 ROB: 104 LSQ: 85 IQ: 96, IPC: 1.4035
TH3 ROB: 4 LSQ: 2 IQ: 0, IPC: 0.0008
EPOCH ENDS
EPOCH STARTS
TH0 ROB: 4 LSQ: 0 IQ: 0 IPC: 0.0005
TH1 ROB: 4 LSQ: 1 IQ: 0, IPC: 0.7881
TH2 ROB: 105 LSQ: 86 IQ: 96, IPC: 1.4068
TH3 ROB: 4 LSQ: 2 IQ: 0, IPC: 0.0008
EPOCH ENDS
EPOCH STARTS
TH0 ROB: 4 LSQ: 0 IQ: 0 IPC: 0.0005
TH1 ROB: 4 LSQ: 1 IQ: 0, IPC: 0.7848
TH2 ROB: 105 LSQ: 87 IQ: 96, IPC: 1.4101
TH3 ROB: 4 LSQ: 2 IQ: 0, IPC: 0.0008
EPOCH ENDS
EPOCH STARTS
TH0 ROB: 4 LSQ: 0 IQ: 0 IPC: 0.0005
TH1 ROB: 4 LSQ: 1 IQ: 0, IPC: 0.7815
TH2 ROB: 105 LSQ: 87 IQ: 96, IPC: 1.4134
TH3 ROB: 4 LSQ: 2 IQ: 0, IPC: 0.0008
EPOCH ENDS
EPOCH STARTS
TH0 ROB: 4 LSQ: 0 IQ: 0 IPC: 0.0005
TH1 ROB: 4 LSQ: 1 IQ: 0, IPC: 0.7783
TH2 ROB: 106 LSQ: 87 IQ: 96, IPC: 1.4166
TH3 ROB: 4 LSQ: 2 IQ: 0, IPC: 0.0008
EPOCH ENDS
EPOCH STARTS
TH0 ROB: 4 LSQ: 0 IQ: 0 IPC: 0.0005
TH1 ROB: 4 LSQ: 1 IQ: 0, IPC: 0.7751
TH2 ROB: 104 LSQ: 85 IQ: 96, IPC: 1.4198
TH3 ROB: 4 LSQ: 2 IQ: 0, IPC: 0.0008
EPOCH ENDS
EPOCH STARTS
TH0 ROB: 4 LSQ: 0 IQ: 0 IPC: 0.0005
TH1 ROB: 4 LSQ: 1 IQ: 0, IPC: 0.7719
TH2 ROB: 104 LSQ: 85 IQ: 96, IPC: 1.4230
TH3 ROB: 4 LSQ: 2 IQ: 0, IPC: 0.0008
EPOCH ENDS
EPOCH STARTS
TH0 ROB: 4 LSQ: 0 IQ: 0 IPC: 0.0005
TH1 ROB: 4 LSQ: 1 IQ: 0, IPC: 0.7687
TH2 ROB: 105 LSQ: 87 IQ: 96, IPC: 1.4262
TH3 ROB: 4 LSQ: 2 IQ: 0, IPC: 0.0008
EPOCH ENDS
EPOCH STARTS
TH0 ROB: 4 LSQ: 0 IQ: 0 IPC: 0.0005
TH1 ROB: 4 LSQ: 1 IQ: 0, IPC: 0.7656
TH2 ROB: 106 LSQ: 87 IQ: 96, IPC: 1.4293
TH3 ROB: 4 LSQ: 2 IQ: 0, IPC: 0.0008
EPOCH ENDS
EPOCH STARTS
TH0 ROB: 4 LSQ: 0 IQ: 0 IPC: 0.0005
TH1 ROB: 4 LSQ: 1 IQ: 0, IPC: 0.7625
TH2 ROB: 106 LSQ: 87 IQ: 96, IPC: 1.4325
TH3 ROB: 4 LSQ: 2 IQ: 0, IPC: 0.0008
EPOCH ENDS
EPOCH STARTS
TH0 ROB: 4 LSQ: 0 IQ: 0 IPC: 0.0005
TH1 ROB: 4 LSQ: 1 IQ: 0, IPC: 0.7594
TH2 ROB: 106 LSQ: 87 IQ: 96, IPC: 1.4355
TH3 ROB: 4 LSQ: 2 IQ: 0, IPC: 0.0008
EPOCH ENDS
EPOCH STARTS
TH0 ROB: 4 LSQ: 0 IQ: 0 IPC: 0.0005
TH1 ROB: 4 LSQ: 1 IQ: 0, IPC: 0.7563
TH2 ROB: 104 LSQ: 86 IQ: 96, IPC: 1.4386
TH3 ROB: 4 LSQ: 2 IQ: 0, IPC: 0.0008
EPOCH ENDS
EPOCH STARTS
TH0 ROB: 4 LSQ: 0 IQ: 0 IPC: 0.0005
TH1 ROB: 4 LSQ: 1 IQ: 0, IPC: 0.7533
TH2 ROB: 104 LSQ: 87 IQ: 96, IPC: 1.4417
TH3 ROB: 4 LSQ: 2 IQ: 0, IPC: 0.0008
EPOCH ENDS
EPOCH STARTS
TH0 ROB: 4 LSQ: 0 IQ: 0 IPC: 0.0005
TH1 ROB: 4 LSQ: 1 IQ: 0, IPC: 0.7503
TH2 ROB: 105 LSQ: 86 IQ: 96, IPC: 1.4447
TH3 ROB: 4 LSQ: 2 IQ: 0, IPC: 0.0008
EPOCH ENDS
EPOCH STARTS
TH0 ROB: 4 LSQ: 0 IQ: 0 IPC: 0.0005
TH1 ROB: 4 LSQ: 1 IQ: 0, IPC: 0.7473
TH2 ROB: 105 LSQ: 86 IQ: 96, IPC: 1.4477
TH3 ROB: 4 LSQ: 2 IQ: 0, IPC: 0.0008
EPOCH ENDS
EPOCH STARTS
TH0 ROB: 4 LSQ: 0 IQ: 0 IPC: 0.0005
TH1 ROB: 4 LSQ: 1 IQ: 0, IPC: 0.7443
TH2 ROB: 106 LSQ: 87 IQ: 96, IPC: 1.4506
TH3 ROB: 4 LSQ: 2 IQ: 0, IPC: 0.0008
EPOCH ENDS
EPOCH STARTS
TH0 ROB: 4 LSQ: 0 IQ: 0 IPC: 0.0005
TH1 ROB: 4 LSQ: 1 IQ: 0, IPC: 0.7414
TH2 ROB: 105 LSQ: 87 IQ: 96, IPC: 1.4536
TH3 ROB: 4 LSQ: 2 IQ: 0, IPC: 0.0008
EPOCH ENDS
EPOCH STARTS
TH0 ROB: 4 LSQ: 0 IQ: 0 IPC: 0.0005
TH1 ROB: 4 LSQ: 1 IQ: 0, IPC: 0.7385
TH2 ROB: 105 LSQ: 86 IQ: 96, IPC: 1.4565
TH3 ROB: 4 LSQ: 2 IQ: 0, IPC: 0.0008
EPOCH ENDS
EPOCH STARTS
TH0 ROB: 4 LSQ: 0 IQ: 0 IPC: 0.0005
TH1 ROB: 4 LSQ: 1 IQ: 0, IPC: 0.7356
TH2 ROB: 105 LSQ: 86 IQ: 96, IPC: 1.4594
TH3 ROB: 4 LSQ: 2 IQ: 0, IPC: 0.0008
EPOCH ENDS
EPOCH STARTS
TH0 ROB: 4 LSQ: 0 IQ: 0 IPC: 0.0005
TH1 ROB: 4 LSQ: 1 IQ: 0, IPC: 0.7327
TH2 ROB: 105 LSQ: 86 IQ: 96, IPC: 1.4623
TH3 ROB: 4 LSQ: 2 IQ: 0, IPC: 0.0008
EPOCH ENDS
EPOCH STARTS
TH0 ROB: 4 LSQ: 0 IQ: 0 IPC: 0.0005
TH1 ROB: 4 LSQ: 1 IQ: 0, IPC: 0.7298
TH2 ROB: 105 LSQ: 86 IQ: 96, IPC: 1.4651
TH3 ROB: 4 LSQ: 2 IQ: 0, IPC: 0.0008
EPOCH ENDS
EPOCH STARTS
TH0 ROB: 4 LSQ: 0 IQ: 0 IPC: 0.0005
TH1 ROB: 4 LSQ: 1 IQ: 0, IPC: 0.7270
TH2 ROB: 105 LSQ: 87 IQ: 96, IPC: 1.4680
TH3 ROB: 4 LSQ: 2 IQ: 0, IPC: 0.0008
EPOCH ENDS
EPOCH STARTS
TH0 ROB: 4 LSQ: 0 IQ: 0 IPC: 0.0005
TH1 ROB: 4 LSQ: 1 IQ: 0, IPC: 0.7242
TH2 ROB: 105 LSQ: 86 IQ: 96, IPC: 1.4708
TH3 ROB: 4 LSQ: 2 IQ: 0, IPC: 0.0008
EPOCH ENDS
EPOCH STARTS
TH0 ROB: 4 LSQ: 0 IQ: 0 IPC: 0.0005
TH1 ROB: 4 LSQ: 1 IQ: 0, IPC: 0.7214
TH2 ROB: 105 LSQ: 86 IQ: 96, IPC: 1.4736
TH3 ROB: 4 LSQ: 2 IQ: 0, IPC: 0.0008
EPOCH ENDS
EPOCH STARTS
TH0 ROB: 4 LSQ: 0 IQ: 0 IPC: 0.0005
TH1 ROB: 4 LSQ: 1 IQ: 0, IPC: 0.7187
TH2 ROB: 105 LSQ: 86 IQ: 96, IPC: 1.4763
TH3 ROB: 4 LSQ: 2 IQ: 0, IPC: 0.0008
EPOCH ENDS
EPOCH STARTS
TH0 ROB: 4 LSQ: 0 IQ: 0 IPC: 0.0005
TH1 ROB: 4 LSQ: 1 IQ: 0, IPC: 0.7159
TH2 ROB: 105 LSQ: 87 IQ: 96, IPC: 1.4791
TH3 ROB: 4 LSQ: 2 IQ: 0, IPC: 0.0008
EPOCH ENDS
EPOCH STARTS
TH0 ROB: 4 LSQ: 0 IQ: 0 IPC: 0.0005
TH1 ROB: 4 LSQ: 1 IQ: 0, IPC: 0.7132
TH2 ROB: 105 LSQ: 88 IQ: 96, IPC: 1.4818
TH3 ROB: 4 LSQ: 2 IQ: 0, IPC: 0.0008
EPOCH ENDS
EPOCH STARTS
TH0 ROB: 4 LSQ: 0 IQ: 0 IPC: 0.0005
TH1 ROB: 4 LSQ: 1 IQ: 0, IPC: 0.7105
TH2 ROB: 104 LSQ: 85 IQ: 96, IPC: 1.4845
TH3 ROB: 4 LSQ: 2 IQ: 0, IPC: 0.0008
EPOCH ENDS
EPOCH STARTS
TH0 ROB: 4 LSQ: 0 IQ: 0 IPC: 0.0005
TH1 ROB: 4 LSQ: 1 IQ: 0, IPC: 0.7078
TH2 ROB: 104 LSQ: 85 IQ: 96, IPC: 1.4872
TH3 ROB: 4 LSQ: 2 IQ: 0, IPC: 0.0008
EPOCH ENDS
EPOCH STARTS
TH0 ROB: 4 LSQ: 0 IQ: 0 IPC: 0.0005
TH1 ROB: 4 LSQ: 1 IQ: 0, IPC: 0.7051
TH2 ROB: 105 LSQ: 86 IQ: 96, IPC: 1.4899
TH3 ROB: 4 LSQ: 2 IQ: 0, IPC: 0.0008
EPOCH ENDS
EPOCH STARTS
TH0 ROB: 4 LSQ: 0 IQ: 0 IPC: 0.0005
TH1 ROB: 4 LSQ: 1 IQ: 0, IPC: 0.7025
TH2 ROB: 105 LSQ: 87 IQ: 96, IPC: 1.4925
TH3 ROB: 4 LSQ: 2 IQ: 0, IPC: 0.0008
EPOCH ENDS
EPOCH STARTS
TH0 ROB: 4 LSQ: 0 IQ: 0 IPC: 0.0005
TH1 ROB: 4 LSQ: 1 IQ: 0, IPC: 0.6999
TH2 ROB: 106 LSQ: 87 IQ: 96, IPC: 1.4951
TH3 ROB: 4 LSQ: 2 IQ: 0, IPC: 0.0007
EPOCH ENDS
EPOCH STARTS
TH0 ROB: 4 LSQ: 0 IQ: 0 IPC: 0.0005
TH1 ROB: 4 LSQ: 1 IQ: 0, IPC: 0.6973
TH2 ROB: 104 LSQ: 85 IQ: 96, IPC: 1.4977
TH3 ROB: 4 LSQ: 2 IQ: 0, IPC: 0.0007
EPOCH ENDS
EPOCH STARTS
TH0 ROB: 4 LSQ: 0 IQ: 0 IPC: 0.0005
TH1 ROB: 4 LSQ: 1 IQ: 0, IPC: 0.6947
TH2 ROB: 104 LSQ: 85 IQ: 96, IPC: 1.5003
TH3 ROB: 4 LSQ: 2 IQ: 0, IPC: 0.0007
EPOCH ENDS
EPOCH STARTS
TH0 ROB: 4 LSQ: 0 IQ: 0 IPC: 0.0005
TH1 ROB: 4 LSQ: 1 IQ: 0, IPC: 0.6921
TH2 ROB: 104 LSQ: 85 IQ: 96, IPC: 1.5029
TH3 ROB: 4 LSQ: 2 IQ: 0, IPC: 0.0007
EPOCH ENDS
EPOCH STARTS
TH0 ROB: 4 LSQ: 0 IQ: 0 IPC: 0.0005
TH1 ROB: 4 LSQ: 1 IQ: 0, IPC: 0.6896
TH2 ROB: 105 LSQ: 87 IQ: 96, IPC: 1.5054
TH3 ROB: 4 LSQ: 2 IQ: 0, IPC: 0.0007
EPOCH ENDS
EPOCH STARTS
TH0 ROB: 4 LSQ: 0 IQ: 0 IPC: 0.0005
TH1 ROB: 4 LSQ: 1 IQ: 0, IPC: 0.6871
TH2 ROB: 105 LSQ: 86 IQ: 96, IPC: 1.5080
TH3 ROB: 4 LSQ: 2 IQ: 0, IPC: 0.0007
EPOCH ENDS
EPOCH STARTS
TH0 ROB: 4 LSQ: 0 IQ: 0 IPC: 0.0005
TH1 ROB: 4 LSQ: 1 IQ: 0, IPC: 0.6846
TH2 ROB: 104 LSQ: 85 IQ: 96, IPC: 1.5105
TH3 ROB: 4 LSQ: 2 IQ: 0, IPC: 0.0007
EPOCH ENDS
EPOCH STARTS
TH0 ROB: 4 LSQ: 0 IQ: 0 IPC: 0.0005
TH1 ROB: 4 LSQ: 1 IQ: 0, IPC: 0.6821
TH2 ROB: 104 LSQ: 85 IQ: 96, IPC: 1.5130
TH3 ROB: 4 LSQ: 2 IQ: 0, IPC: 0.0007
EPOCH ENDS
EPOCH STARTS
TH0 ROB: 4 LSQ: 0 IQ: 0 IPC: 0.0005
TH1 ROB: 4 LSQ: 1 IQ: 0, IPC: 0.6796
TH2 ROB: 104 LSQ: 87 IQ: 96, IPC: 1.5155
TH3 ROB: 4 LSQ: 2 IQ: 0, IPC: 0.0007
EPOCH ENDS
EPOCH STARTS
TH0 ROB: 4 LSQ: 0 IQ: 0 IPC: 0.0005
TH1 ROB: 4 LSQ: 1 IQ: 0, IPC: 0.6771
TH2 ROB: 105 LSQ: 87 IQ: 96, IPC: 1.5179
TH3 ROB: 4 LSQ: 2 IQ: 0, IPC: 0.0007
EPOCH ENDS
EPOCH STARTS
TH0 ROB: 4 LSQ: 0 IQ: 0 IPC: 0.0005
TH1 ROB: 4 LSQ: 1 IQ: 0, IPC: 0.6747
TH2 ROB: 105 LSQ: 85 IQ: 96, IPC: 1.5203
TH3 ROB: 4 LSQ: 2 IQ: 0, IPC: 0.0007
EPOCH ENDS
EPOCH STARTS
TH0 ROB: 4 LSQ: 0 IQ: 0 IPC: 0.0005
TH1 ROB: 4 LSQ: 1 IQ: 0, IPC: 0.6723
TH2 ROB: 104 LSQ: 85 IQ: 96, IPC: 1.5228
TH3 ROB: 4 LSQ: 2 IQ: 0, IPC: 0.0007
EPOCH ENDS
EPOCH STARTS
TH0 ROB: 4 LSQ: 0 IQ: 0 IPC: 0.0005
TH1 ROB: 4 LSQ: 1 IQ: 0, IPC: 0.6699
TH2 ROB: 104 LSQ: 85 IQ: 96, IPC: 1.5252
TH3 ROB: 4 LSQ: 2 IQ: 0, IPC: 0.0007
EPOCH ENDS
EPOCH STARTS
TH0 ROB: 4 LSQ: 0 IQ: 0 IPC: 0.0005
TH1 ROB: 4 LSQ: 1 IQ: 0, IPC: 0.6675
TH2 ROB: 104 LSQ: 86 IQ: 96, IPC: 1.5276
TH3 ROB: 4 LSQ: 2 IQ: 0, IPC: 0.0007
EPOCH ENDS
EPOCH STARTS
TH0 ROB: 4 LSQ: 0 IQ: 0 IPC: 0.0005
TH1 ROB: 4 LSQ: 1 IQ: 0, IPC: 0.6651
TH2 ROB: 107 LSQ: 88 IQ: 96, IPC: 1.5299
TH3 ROB: 4 LSQ: 2 IQ: 0, IPC: 0.0007
EPOCH ENDS
EPOCH STARTS
TH0 ROB: 4 LSQ: 0 IQ: 0 IPC: 0.0004
TH1 ROB: 4 LSQ: 1 IQ: 0, IPC: 0.6628
TH2 ROB: 105 LSQ: 86 IQ: 96, IPC: 1.5323
TH3 ROB: 4 LSQ: 2 IQ: 0, IPC: 0.0007
EPOCH ENDS
EPOCH STARTS
TH0 ROB: 4 LSQ: 0 IQ: 0 IPC: 0.0004
TH1 ROB: 4 LSQ: 1 IQ: 0, IPC: 0.6605
TH2 ROB: 105 LSQ: 85 IQ: 96, IPC: 1.5346
TH3 ROB: 4 LSQ: 2 IQ: 0, IPC: 0.0007
EPOCH ENDS
EPOCH STARTS
TH0 ROB: 4 LSQ: 0 IQ: 0 IPC: 0.0004
TH1 ROB: 4 LSQ: 1 IQ: 0, IPC: 0.6581
TH2 ROB: 104 LSQ: 85 IQ: 96, IPC: 1.5369
TH3 ROB: 4 LSQ: 2 IQ: 0, IPC: 0.0007
EPOCH ENDS
EPOCH STARTS
TH0 ROB: 4 LSQ: 0 IQ: 0 IPC: 0.0004
TH1 ROB: 4 LSQ: 1 IQ: 0, IPC: 0.6558
TH2 ROB: 105 LSQ: 87 IQ: 96, IPC: 1.5393
TH3 ROB: 4 LSQ: 2 IQ: 0, IPC: 0.0007
EPOCH ENDS
EPOCH STARTS
TH0 ROB: 4 LSQ: 0 IQ: 0 IPC: 0.0004
TH1 ROB: 4 LSQ: 1 IQ: 0, IPC: 0.6535
TH2 ROB: 105 LSQ: 86 IQ: 96, IPC: 1.5415
TH3 ROB: 4 LSQ: 2 IQ: 0, IPC: 0.0007
EPOCH ENDS
EPOCH STARTS
TH0 ROB: 4 LSQ: 0 IQ: 0 IPC: 0.0004
TH1 ROB: 4 LSQ: 1 IQ: 0, IPC: 0.6513
TH2 ROB: 104 LSQ: 85 IQ: 96, IPC: 1.5438
TH3 ROB: 4 LSQ: 2 IQ: 0, IPC: 0.0007
EPOCH ENDS
EPOCH STARTS
TH0 ROB: 4 LSQ: 0 IQ: 0 IPC: 0.0004
TH1 ROB: 4 LSQ: 1 IQ: 0, IPC: 0.6490
TH2 ROB: 105 LSQ: 86 IQ: 96, IPC: 1.5461
TH3 ROB: 4 LSQ: 2 IQ: 0, IPC: 0.0007
EPOCH ENDS
EPOCH STARTS
TH0 ROB: 4 LSQ: 0 IQ: 0 IPC: 0.0004
TH1 ROB: 4 LSQ: 1 IQ: 0, IPC: 0.6468
TH2 ROB: 105 LSQ: 87 IQ: 96, IPC: 1.5483
TH3 ROB: 4 LSQ: 2 IQ: 0, IPC: 0.0007
EPOCH ENDS
EPOCH STARTS
TH0 ROB: 4 LSQ: 0 IQ: 0 IPC: 0.0004
TH1 ROB: 4 LSQ: 1 IQ: 0, IPC: 0.6446
TH2 ROB: 105 LSQ: 87 IQ: 96, IPC: 1.5505
TH3 ROB: 4 LSQ: 2 IQ: 0, IPC: 0.0007
EPOCH ENDS
EPOCH STARTS
TH0 ROB: 4 LSQ: 0 IQ: 0 IPC: 0.0004
TH1 ROB: 4 LSQ: 1 IQ: 0, IPC: 0.6424
TH2 ROB: 106 LSQ: 87 IQ: 96, IPC: 1.5527
TH3 ROB: 4 LSQ: 2 IQ: 0, IPC: 0.0007
EPOCH ENDS
EPOCH STARTS
TH0 ROB: 4 LSQ: 0 IQ: 0 IPC: 0.0004
TH1 ROB: 4 LSQ: 1 IQ: 0, IPC: 0.6402
TH2 ROB: 104 LSQ: 85 IQ: 96, IPC: 1.5549
TH3 ROB: 4 LSQ: 2 IQ: 0, IPC: 0.0007
EPOCH ENDS
EPOCH STARTS
TH0 ROB: 4 LSQ: 0 IQ: 0 IPC: 0.0004
TH1 ROB: 4 LSQ: 1 IQ: 0, IPC: 0.6380
TH2 ROB: 104 LSQ: 85 IQ: 96, IPC: 1.5571
TH3 ROB: 4 LSQ: 2 IQ: 0, IPC: 0.0007
EPOCH ENDS
EPOCH STARTS
TH0 ROB: 4 LSQ: 0 IQ: 0 IPC: 0.0004
TH1 ROB: 4 LSQ: 1 IQ: 0, IPC: 0.6358
TH2 ROB: 105 LSQ: 87 IQ: 96, IPC: 1.5593
TH3 ROB: 4 LSQ: 2 IQ: 0, IPC: 0.0007
EPOCH ENDS
EPOCH STARTS
TH0 ROB: 4 LSQ: 0 IQ: 0 IPC: 0.0004
TH1 ROB: 4 LSQ: 1 IQ: 0, IPC: 0.6337
TH2 ROB: 106 LSQ: 87 IQ: 96, IPC: 1.5614
TH3 ROB: 4 LSQ: 2 IQ: 0, IPC: 0.0007
EPOCH ENDS
EPOCH STARTS
TH0 ROB: 4 LSQ: 0 IQ: 0 IPC: 0.0004
TH1 ROB: 4 LSQ: 1 IQ: 0, IPC: 0.6315
TH2 ROB: 106 LSQ: 87 IQ: 96, IPC: 1.5636
TH3 ROB: 4 LSQ: 2 IQ: 0, IPC: 0.0007
EPOCH ENDS
EPOCH STARTS
TH0 ROB: 4 LSQ: 0 IQ: 0 IPC: 0.0004
TH1 ROB: 4 LSQ: 1 IQ: 0, IPC: 0.6294
TH2 ROB: 106 LSQ: 87 IQ: 96, IPC: 1.5657
TH3 ROB: 4 LSQ: 2 IQ: 0, IPC: 0.0007
EPOCH ENDS
EPOCH STARTS
TH0 ROB: 4 LSQ: 0 IQ: 0 IPC: 0.0004
TH1 ROB: 4 LSQ: 1 IQ: 0, IPC: 0.6273
TH2 ROB: 104 LSQ: 86 IQ: 96, IPC: 1.5678
TH3 ROB: 4 LSQ: 2 IQ: 0, IPC: 0.0007
EPOCH ENDS
EPOCH STARTS
TH0 ROB: 4 LSQ: 0 IQ: 0 IPC: 0.0004
TH1 ROB: 4 LSQ: 1 IQ: 0, IPC: 0.6252
TH2 ROB: 104 LSQ: 87 IQ: 96, IPC: 1.5699
TH3 ROB: 4 LSQ: 2 IQ: 0, IPC: 0.0007
EPOCH ENDS
EPOCH STARTS
TH0 ROB: 4 LSQ: 0 IQ: 0 IPC: 0.0004
TH1 ROB: 4 LSQ: 1 IQ: 0, IPC: 0.6231
TH2 ROB: 105 LSQ: 86 IQ: 96, IPC: 1.5720
TH3 ROB: 4 LSQ: 2 IQ: 0, IPC: 0.0007
EPOCH ENDS
EPOCH STARTS
TH0 ROB: 4 LSQ: 0 IQ: 0 IPC: 0.0004
TH1 ROB: 4 LSQ: 1 IQ: 0, IPC: 0.6211
TH2 ROB: 105 LSQ: 86 IQ: 96, IPC: 1.5741
TH3 ROB: 4 LSQ: 2 IQ: 0, IPC: 0.0007
EPOCH ENDS
EPOCH STARTS
TH0 ROB: 4 LSQ: 0 IQ: 0 IPC: 0.0004
TH1 ROB: 4 LSQ: 1 IQ: 0, IPC: 0.6190
TH2 ROB: 106 LSQ: 87 IQ: 96, IPC: 1.5761
TH3 ROB: 4 LSQ: 2 IQ: 0, IPC: 0.0007
EPOCH ENDS
EPOCH STARTS
TH0 ROB: 4 LSQ: 0 IQ: 0 IPC: 0.0004
TH1 ROB: 4 LSQ: 1 IQ: 0, IPC: 0.6170
TH2 ROB: 105 LSQ: 87 IQ: 96, IPC: 1.5781
TH3 ROB: 4 LSQ: 2 IQ: 0, IPC: 0.0007
EPOCH ENDS
EPOCH STARTS
TH0 ROB: 4 LSQ: 0 IQ: 0 IPC: 0.0004
TH1 ROB: 4 LSQ: 1 IQ: 0, IPC: 0.6150
TH2 ROB: 105 LSQ: 86 IQ: 96, IPC: 1.5802
TH3 ROB: 4 LSQ: 2 IQ: 0, IPC: 0.0007
EPOCH ENDS
EPOCH STARTS
TH0 ROB: 4 LSQ: 0 IQ: 0 IPC: 0.0004
TH1 ROB: 4 LSQ: 1 IQ: 0, IPC: 0.6130
TH2 ROB: 105 LSQ: 86 IQ: 96, IPC: 1.5822
TH3 ROB: 4 LSQ: 2 IQ: 0, IPC: 0.0007
EPOCH ENDS
EPOCH STARTS
TH0 ROB: 4 LSQ: 0 IQ: 0 IPC: 0.0004
TH1 ROB: 4 LSQ: 1 IQ: 0, IPC: 0.6110
TH2 ROB: 105 LSQ: 86 IQ: 96, IPC: 1.5842
TH3 ROB: 4 LSQ: 2 IQ: 0, IPC: 0.0007
EPOCH ENDS
EPOCH STARTS
TH0 ROB: 4 LSQ: 0 IQ: 0 IPC: 0.0004
TH1 ROB: 4 LSQ: 1 IQ: 0, IPC: 0.6090
TH2 ROB: 105 LSQ: 86 IQ: 96, IPC: 1.5862
TH3 ROB: 4 LSQ: 2 IQ: 0, IPC: 0.0007
EPOCH ENDS
EPOCH STARTS
TH0 ROB: 4 LSQ: 0 IQ: 0 IPC: 0.0004
TH1 ROB: 4 LSQ: 1 IQ: 0, IPC: 0.6070
TH2 ROB: 105 LSQ: 87 IQ: 96, IPC: 1.5881
TH3 ROB: 4 LSQ: 2 IQ: 0, IPC: 0.0006
EPOCH ENDS
EPOCH STARTS
TH0 ROB: 4 LSQ: 0 IQ: 0 IPC: 0.0004
TH1 ROB: 4 LSQ: 1 IQ: 0, IPC: 0.6051
TH2 ROB: 105 LSQ: 86 IQ: 96, IPC: 1.5901
TH3 ROB: 4 LSQ: 2 IQ: 0, IPC: 0.0006
EPOCH ENDS
EPOCH STARTS
TH0 ROB: 4 LSQ: 0 IQ: 0 IPC: 0.0004
TH1 ROB: 4 LSQ: 1 IQ: 0, IPC: 0.6031
TH2 ROB: 105 LSQ: 86 IQ: 96, IPC: 1.5921
TH3 ROB: 4 LSQ: 2 IQ: 0, IPC: 0.0006
EPOCH ENDS
EPOCH STARTS
TH0 ROB: 4 LSQ: 0 IQ: 0 IPC: 0.0004
TH1 ROB: 4 LSQ: 1 IQ: 0, IPC: 0.6012
TH2 ROB: 105 LSQ: 86 IQ: 96, IPC: 1.5940
TH3 ROB: 4 LSQ: 2 IQ: 0, IPC: 0.0006
EPOCH ENDS
EPOCH STARTS
TH0 ROB: 4 LSQ: 0 IQ: 0 IPC: 0.0004
TH1 ROB: 4 LSQ: 1 IQ: 0, IPC: 0.5993
TH2 ROB: 105 LSQ: 87 IQ: 96, IPC: 1.5959
TH3 ROB: 4 LSQ: 2 IQ: 0, IPC: 0.0006
EPOCH ENDS
EPOCH STARTS
TH0 ROB: 4 LSQ: 0 IQ: 0 IPC: 0.0004
TH1 ROB: 4 LSQ: 1 IQ: 0, IPC: 0.5973
TH2 ROB: 105 LSQ: 88 IQ: 96, IPC: 1.5978
TH3 ROB: 4 LSQ: 2 IQ: 0, IPC: 0.0006
EPOCH ENDS
EPOCH STARTS
TH0 ROB: 4 LSQ: 0 IQ: 0 IPC: 0.0004
TH1 ROB: 4 LSQ: 1 IQ: 0, IPC: 0.5955
TH2 ROB: 104 LSQ: 85 IQ: 96, IPC: 1.5997
TH3 ROB: 4 LSQ: 2 IQ: 0, IPC: 0.0006
EPOCH ENDS
EPOCH STARTS
TH0 ROB: 4 LSQ: 0 IQ: 0 IPC: 0.0004
TH1 ROB: 4 LSQ: 1 IQ: 0, IPC: 0.5936
TH2 ROB: 104 LSQ: 85 IQ: 96, IPC: 1.6016
TH3 ROB: 4 LSQ: 2 IQ: 0, IPC: 0.0006
EPOCH ENDS
EPOCH STARTS
TH0 ROB: 4 LSQ: 0 IQ: 0 IPC: 0.0004
TH1 ROB: 4 LSQ: 1 IQ: 0, IPC: 0.5917
TH2 ROB: 105 LSQ: 86 IQ: 96, IPC: 1.6035
TH3 ROB: 4 LSQ: 2 IQ: 0, IPC: 0.0006
EPOCH ENDS
EPOCH STARTS
TH0 ROB: 4 LSQ: 0 IQ: 0 IPC: 0.0004
TH1 ROB: 4 LSQ: 1 IQ: 0, IPC: 0.5898
TH2 ROB: 105 LSQ: 87 IQ: 96, IPC: 1.6053
TH3 ROB: 4 LSQ: 2 IQ: 0, IPC: 0.0006
EPOCH ENDS
EPOCH STARTS
TH0 ROB: 4 LSQ: 0 IQ: 0 IPC: 0.0004
TH1 ROB: 4 LSQ: 1 IQ: 0, IPC: 0.5880
TH2 ROB: 106 LSQ: 87 IQ: 96, IPC: 1.6072
TH3 ROB: 4 LSQ: 2 IQ: 0, IPC: 0.0006
EPOCH ENDS
EPOCH STARTS
TH0 ROB: 4 LSQ: 0 IQ: 0 IPC: 0.0004
TH1 ROB: 4 LSQ: 1 IQ: 0, IPC: 0.5861
TH2 ROB: 104 LSQ: 85 IQ: 96, IPC: 1.6090
TH3 ROB: 4 LSQ: 2 IQ: 0, IPC: 0.0006
EPOCH ENDS
EPOCH STARTS
TH0 ROB: 4 LSQ: 0 IQ: 0 IPC: 0.0004
TH1 ROB: 4 LSQ: 1 IQ: 0, IPC: 0.5843
TH2 ROB: 104 LSQ: 85 IQ: 96, IPC: 1.6109
TH3 ROB: 4 LSQ: 2 IQ: 0, IPC: 0.0006
EPOCH ENDS
EPOCH STARTS
TH0 ROB: 4 LSQ: 0 IQ: 0 IPC: 0.0004
TH1 ROB: 4 LSQ: 1 IQ: 0, IPC: 0.5825
TH2 ROB: 104 LSQ: 85 IQ: 96, IPC: 1.6127
TH3 ROB: 4 LSQ: 2 IQ: 0, IPC: 0.0006
EPOCH ENDS
EPOCH STARTS
TH0 ROB: 4 LSQ: 0 IQ: 0 IPC: 0.0004
TH1 ROB: 4 LSQ: 1 IQ: 0, IPC: 0.5807
TH2 ROB: 105 LSQ: 87 IQ: 96, IPC: 1.6145
TH3 ROB: 4 LSQ: 2 IQ: 0, IPC: 0.0006
EPOCH ENDS
EPOCH STARTS
TH0 ROB: 4 LSQ: 0 IQ: 0 IPC: 0.0004
TH1 ROB: 4 LSQ: 1 IQ: 0, IPC: 0.5789
TH2 ROB: 105 LSQ: 86 IQ: 96, IPC: 1.6163
TH3 ROB: 4 LSQ: 2 IQ: 0, IPC: 0.0006
EPOCH ENDS
EPOCH STARTS
TH0 ROB: 4 LSQ: 0 IQ: 0 IPC: 0.0004
TH1 ROB: 4 LSQ: 1 IQ: 0, IPC: 0.5771
TH2 ROB: 104 LSQ: 85 IQ: 96, IPC: 1.6181
TH3 ROB: 4 LSQ: 2 IQ: 0, IPC: 0.0006
EPOCH ENDS
EPOCH STARTS
TH0 ROB: 4 LSQ: 0 IQ: 0 IPC: 0.0004
TH1 ROB: 4 LSQ: 1 IQ: 0, IPC: 0.5754
TH2 ROB: 104 LSQ: 85 IQ: 96, IPC: 1.6198
TH3 ROB: 4 LSQ: 2 IQ: 0, IPC: 0.0006
EPOCH ENDS
EPOCH STARTS
TH0 ROB: 4 LSQ: 0 IQ: 0 IPC: 0.0004
TH1 ROB: 4 LSQ: 1 IQ: 0, IPC: 0.5736
TH2 ROB: 104 LSQ: 87 IQ: 96, IPC: 1.6216
TH3 ROB: 4 LSQ: 2 IQ: 0, IPC: 0.0006
EPOCH ENDS
EPOCH STARTS
TH0 ROB: 4 LSQ: 0 IQ: 0 IPC: 0.0004
TH1 ROB: 4 LSQ: 1 IQ: 0, IPC: 0.5719
TH2 ROB: 105 LSQ: 87 IQ: 96, IPC: 1.6234
TH3 ROB: 4 LSQ: 2 IQ: 0, IPC: 0.0006
EPOCH ENDS
EPOCH STARTS
TH0 ROB: 4 LSQ: 0 IQ: 0 IPC: 0.0004
TH1 ROB: 4 LSQ: 1 IQ: 0, IPC: 0.5701
TH2 ROB: 105 LSQ: 85 IQ: 96, IPC: 1.6251
TH3 ROB: 4 LSQ: 2 IQ: 0, IPC: 0.0006
EPOCH ENDS
EPOCH STARTS
TH0 ROB: 4 LSQ: 0 IQ: 0 IPC: 0.0004
TH1 ROB: 4 LSQ: 1 IQ: 0, IPC: 0.5684
TH2 ROB: 104 LSQ: 85 IQ: 96, IPC: 1.6268
TH3 ROB: 4 LSQ: 2 IQ: 0, IPC: 0.0006
EPOCH ENDS
EPOCH STARTS
TH0 ROB: 4 LSQ: 0 IQ: 0 IPC: 0.0004
TH1 ROB: 4 LSQ: 1 IQ: 0, IPC: 0.5667
TH2 ROB: 104 LSQ: 85 IQ: 96, IPC: 1.6285
TH3 ROB: 4 LSQ: 2 IQ: 0, IPC: 0.0006
EPOCH ENDS
EPOCH STARTS
TH0 ROB: 4 LSQ: 0 IQ: 0 IPC: 0.0004
TH1 ROB: 4 LSQ: 1 IQ: 0, IPC: 0.5650
TH2 ROB: 104 LSQ: 86 IQ: 96, IPC: 1.6303
TH3 ROB: 4 LSQ: 2 IQ: 0, IPC: 0.0006
EPOCH ENDS
EPOCH STARTS
TH0 ROB: 4 LSQ: 0 IQ: 0 IPC: 0.0004
TH1 ROB: 4 LSQ: 1 IQ: 0, IPC: 0.5633
TH2 ROB: 107 LSQ: 88 IQ: 96, IPC: 1.6320
TH3 ROB: 4 LSQ: 2 IQ: 0, IPC: 0.0006
EPOCH ENDS
EPOCH STARTS
TH0 ROB: 4 LSQ: 0 IQ: 0 IPC: 0.0004
TH1 ROB: 4 LSQ: 1 IQ: 0, IPC: 0.5616
TH2 ROB: 105 LSQ: 86 IQ: 96, IPC: 1.6336
TH3 ROB: 4 LSQ: 2 IQ: 0, IPC: 0.0006
EPOCH ENDS
EPOCH STARTS
TH0 ROB: 4 LSQ: 0 IQ: 0 IPC: 0.0004
TH1 ROB: 4 LSQ: 1 IQ: 0, IPC: 0.5599
TH2 ROB: 105 LSQ: 85 IQ: 96, IPC: 1.6353
TH3 ROB: 4 LSQ: 2 IQ: 0, IPC: 0.0006
EPOCH ENDS
EPOCH STARTS
TH0 ROB: 4 LSQ: 0 IQ: 0 IPC: 0.0004
TH1 ROB: 4 LSQ: 1 IQ: 0, IPC: 0.5582
TH2 ROB: 104 LSQ: 85 IQ: 96, IPC: 1.6370
TH3 ROB: 4 LSQ: 2 IQ: 0, IPC: 0.0006
EPOCH ENDS
EPOCH STARTS
TH0 ROB: 4 LSQ: 0 IQ: 0 IPC: 0.0004
TH1 ROB: 4 LSQ: 1 IQ: 0, IPC: 0.5566
TH2 ROB: 105 LSQ: 87 IQ: 96, IPC: 1.6387
TH3 ROB: 4 LSQ: 2 IQ: 0, IPC: 0.0006
EPOCH ENDS
EPOCH STARTS
TH0 ROB: 4 LSQ: 0 IQ: 0 IPC: 0.0004
TH1 ROB: 4 LSQ: 1 IQ: 0, IPC: 0.5549
TH2 ROB: 105 LSQ: 86 IQ: 96, IPC: 1.6403
TH3 ROB: 4 LSQ: 2 IQ: 0, IPC: 0.0006
EPOCH ENDS
EPOCH STARTS
TH0 ROB: 4 LSQ: 0 IQ: 0 IPC: 0.0004
TH1 ROB: 4 LSQ: 1 IQ: 0, IPC: 0.5533
TH2 ROB: 104 LSQ: 85 IQ: 96, IPC: 1.6419
TH3 ROB: 4 LSQ: 2 IQ: 0, IPC: 0.0006
EPOCH ENDS
EPOCH STARTS
TH0 ROB: 4 LSQ: 0 IQ: 0 IPC: 0.0004
TH1 ROB: 4 LSQ: 1 IQ: 0, IPC: 0.5517
TH2 ROB: 105 LSQ: 86 IQ: 96, IPC: 1.6436
TH3 ROB: 4 LSQ: 2 IQ: 0, IPC: 0.0006
EPOCH ENDS
EPOCH STARTS
TH0 ROB: 4 LSQ: 0 IQ: 0 IPC: 0.0004
TH1 ROB: 4 LSQ: 1 IQ: 0, IPC: 0.5501
TH2 ROB: 105 LSQ: 87 IQ: 96, IPC: 1.6452
TH3 ROB: 4 LSQ: 2 IQ: 0, IPC: 0.0006
EPOCH ENDS
EPOCH STARTS
TH0 ROB: 4 LSQ: 0 IQ: 0 IPC: 0.0004
TH1 ROB: 4 LSQ: 1 IQ: 0, IPC: 0.5484
TH2 ROB: 105 LSQ: 87 IQ: 96, IPC: 1.6468
TH3 ROB: 4 LSQ: 2 IQ: 0, IPC: 0.0006
EPOCH ENDS
EPOCH STARTS
TH0 ROB: 4 LSQ: 0 IQ: 0 IPC: 0.0004
TH1 ROB: 4 LSQ: 1 IQ: 0, IPC: 0.5468
TH2 ROB: 106 LSQ: 87 IQ: 96, IPC: 1.6484
TH3 ROB: 4 LSQ: 2 IQ: 0, IPC: 0.0006
EPOCH ENDS
EPOCH STARTS
TH0 ROB: 4 LSQ: 0 IQ: 0 IPC: 0.0004
TH1 ROB: 4 LSQ: 1 IQ: 0, IPC: 0.5453
TH2 ROB: 104 LSQ: 85 IQ: 96, IPC: 1.6500
TH3 ROB: 4 LSQ: 2 IQ: 0, IPC: 0.0006
EPOCH ENDS
EPOCH STARTS
TH0 ROB: 4 LSQ: 0 IQ: 0 IPC: 0.0004
TH1 ROB: 4 LSQ: 1 IQ: 0, IPC: 0.5437
TH2 ROB: 104 LSQ: 85 IQ: 96, IPC: 1.6516
TH3 ROB: 4 LSQ: 2 IQ: 0, IPC: 0.0006
EPOCH ENDS
EPOCH STARTS
TH0 ROB: 4 LSQ: 0 IQ: 0 IPC: 0.0004
TH1 ROB: 4 LSQ: 1 IQ: 0, IPC: 0.5421
TH2 ROB: 105 LSQ: 87 IQ: 96, IPC: 1.6532
TH3 ROB: 4 LSQ: 2 IQ: 0, IPC: 0.0006
EPOCH ENDS
EPOCH STARTS
TH0 ROB: 4 LSQ: 0 IQ: 0 IPC: 0.0004
TH1 ROB: 4 LSQ: 1 IQ: 0, IPC: 0.5405
TH2 ROB: 106 LSQ: 87 IQ: 96, IPC: 1.6547
TH3 ROB: 4 LSQ: 2 IQ: 0, IPC: 0.0006
EPOCH ENDS
EPOCH STARTS
TH0 ROB: 4 LSQ: 0 IQ: 0 IPC: 0.0004
TH1 ROB: 4 LSQ: 1 IQ: 0, IPC: 0.5390
TH2 ROB: 106 LSQ: 87 IQ: 96, IPC: 1.6563
TH3 ROB: 4 LSQ: 2 IQ: 0, IPC: 0.0006
EPOCH ENDS
EPOCH STARTS
TH0 ROB: 4 LSQ: 0 IQ: 0 IPC: 0.0004
TH1 ROB: 4 LSQ: 1 IQ: 0, IPC: 0.5374
TH2 ROB: 106 LSQ: 87 IQ: 96, IPC: 1.6578
TH3 ROB: 4 LSQ: 2 IQ: 0, IPC: 0.0006
EPOCH ENDS
EPOCH STARTS
TH0 ROB: 4 LSQ: 0 IQ: 0 IPC: 0.0004
TH1 ROB: 4 LSQ: 1 IQ: 0, IPC: 0.5359
TH2 ROB: 104 LSQ: 86 IQ: 96, IPC: 1.6594
TH3 ROB: 4 LSQ: 2 IQ: 0, IPC: 0.0006
EPOCH ENDS
EPOCH STARTS
TH0 ROB: 4 LSQ: 0 IQ: 0 IPC: 0.0004
TH1 ROB: 4 LSQ: 1 IQ: 0, IPC: 0.5344
TH2 ROB: 104 LSQ: 87 IQ: 96, IPC: 1.6609
TH3 ROB: 4 LSQ: 2 IQ: 0, IPC: 0.0006
EPOCH ENDS
EPOCH STARTS
TH0 ROB: 4 LSQ: 0 IQ: 0 IPC: 0.0004
TH1 ROB: 4 LSQ: 1 IQ: 0, IPC: 0.5329
TH2 ROB: 105 LSQ: 86 IQ: 96, IPC: 1.6624
TH3 ROB: 4 LSQ: 2 IQ: 0, IPC: 0.0006
EPOCH ENDS
EPOCH STARTS
TH0 ROB: 4 LSQ: 0 IQ: 0 IPC: 0.0004
TH1 ROB: 4 LSQ: 1 IQ: 0, IPC: 0.5314
TH2 ROB: 105 LSQ: 86 IQ: 96, IPC: 1.6639
TH3 ROB: 4 LSQ: 2 IQ: 0, IPC: 0.0006
EPOCH ENDS
EPOCH STARTS
TH0 ROB: 4 LSQ: 0 IQ: 0 IPC: 0.0004
TH1 ROB: 4 LSQ: 1 IQ: 0, IPC: 0.5299
TH2 ROB: 106 LSQ: 87 IQ: 96, IPC: 1.6654
TH3 ROB: 4 LSQ: 2 IQ: 0, IPC: 0.0006
EPOCH ENDS
EPOCH STARTS
TH0 ROB: 4 LSQ: 0 IQ: 0 IPC: 0.0004
TH1 ROB: 4 LSQ: 1 IQ: 0, IPC: 0.5284
TH2 ROB: 105 LSQ: 87 IQ: 96, IPC: 1.6669
TH3 ROB: 4 LSQ: 2 IQ: 0, IPC: 0.0006
EPOCH ENDS
EPOCH STARTS
TH0 ROB: 4 LSQ: 0 IQ: 0 IPC: 0.0004
TH1 ROB: 4 LSQ: 1 IQ: 0, IPC: 0.5269
TH2 ROB: 105 LSQ: 86 IQ: 96, IPC: 1.6684
TH3 ROB: 4 LSQ: 2 IQ: 0, IPC: 0.0006
EPOCH ENDS
EPOCH STARTS
TH0 ROB: 4 LSQ: 0 IQ: 0 IPC: 0.0004
TH1 ROB: 4 LSQ: 1 IQ: 0, IPC: 0.5254
TH2 ROB: 105 LSQ: 86 IQ: 96, IPC: 1.6699
TH3 ROB: 4 LSQ: 2 IQ: 0, IPC: 0.0006
EPOCH ENDS
EPOCH STARTS
TH0 ROB: 4 LSQ: 0 IQ: 0 IPC: 0.0004
TH1 ROB: 4 LSQ: 1 IQ: 0, IPC: 0.5239
TH2 ROB: 105 LSQ: 86 IQ: 96, IPC: 1.6714
TH3 ROB: 4 LSQ: 2 IQ: 0, IPC: 0.0006
EPOCH ENDS
EPOCH STARTS
TH0 ROB: 4 LSQ: 0 IQ: 0 IPC: 0.0004
TH1 ROB: 4 LSQ: 1 IQ: 0, IPC: 0.5225
TH2 ROB: 105 LSQ: 86 IQ: 96, IPC: 1.6728
TH3 ROB: 4 LSQ: 2 IQ: 0, IPC: 0.0006
EPOCH ENDS
EPOCH STARTS
TH0 ROB: 4 LSQ: 0 IQ: 0 IPC: 0.0004
TH1 ROB: 4 LSQ: 1 IQ: 0, IPC: 0.5210
TH2 ROB: 105 LSQ: 87 IQ: 96, IPC: 1.6743
TH3 ROB: 4 LSQ: 2 IQ: 0, IPC: 0.0006
EPOCH ENDS
EPOCH STARTS
TH0 ROB: 4 LSQ: 0 IQ: 0 IPC: 0.0004
TH1 ROB: 4 LSQ: 1 IQ: 0, IPC: 0.5196
TH2 ROB: 105 LSQ: 86 IQ: 96, IPC: 1.6757
TH3 ROB: 4 LSQ: 2 IQ: 0, IPC: 0.0006
EPOCH ENDS
EPOCH STARTS
TH0 ROB: 4 LSQ: 0 IQ: 0 IPC: 0.0004
TH1 ROB: 4 LSQ: 1 IQ: 0, IPC: 0.5181
TH2 ROB: 105 LSQ: 86 IQ: 96, IPC: 1.6771
TH3 ROB: 4 LSQ: 2 IQ: 0, IPC: 0.0006
EPOCH ENDS
EPOCH STARTS
TH0 ROB: 4 LSQ: 0 IQ: 0 IPC: 0.0003
TH1 ROB: 4 LSQ: 1 IQ: 0, IPC: 0.5167
TH2 ROB: 105 LSQ: 86 IQ: 96, IPC: 1.6786
TH3 ROB: 4 LSQ: 2 IQ: 0, IPC: 0.0006
EPOCH ENDS
EPOCH STARTS
TH0 ROB: 4 LSQ: 0 IQ: 0 IPC: 0.0003
TH1 ROB: 4 LSQ: 1 IQ: 0, IPC: 0.5153
TH2 ROB: 105 LSQ: 87 IQ: 96, IPC: 1.6800
TH3 ROB: 4 LSQ: 2 IQ: 0, IPC: 0.0006
EPOCH ENDS
EPOCH STARTS
TH0 ROB: 4 LSQ: 0 IQ: 0 IPC: 0.0003
TH1 ROB: 4 LSQ: 1 IQ: 0, IPC: 0.5139
TH2 ROB: 105 LSQ: 88 IQ: 96, IPC: 1.6814
TH3 ROB: 4 LSQ: 2 IQ: 0, IPC: 0.0006
EPOCH ENDS
EPOCH STARTS
TH0 ROB: 4 LSQ: 0 IQ: 0 IPC: 0.0003
TH1 ROB: 4 LSQ: 1 IQ: 0, IPC: 0.5125
TH2 ROB: 104 LSQ: 85 IQ: 96, IPC: 1.6828
TH3 ROB: 4 LSQ: 2 IQ: 0, IPC: 0.0005
EPOCH ENDS
EPOCH STARTS
TH0 ROB: 4 LSQ: 0 IQ: 0 IPC: 0.0003
TH1 ROB: 4 LSQ: 1 IQ: 0, IPC: 0.5111
TH2 ROB: 104 LSQ: 85 IQ: 96, IPC: 1.6842
TH3 ROB: 4 LSQ: 2 IQ: 0, IPC: 0.0005
EPOCH ENDS
EPOCH STARTS
TH0 ROB: 4 LSQ: 0 IQ: 0 IPC: 0.0003
TH1 ROB: 4 LSQ: 1 IQ: 0, IPC: 0.5097
TH2 ROB: 105 LSQ: 86 IQ: 96, IPC: 1.6856
TH3 ROB: 4 LSQ: 2 IQ: 0, IPC: 0.0005
EPOCH ENDS
EPOCH STARTS
TH0 ROB: 4 LSQ: 0 IQ: 0 IPC: 0.0003
TH1 ROB: 4 LSQ: 1 IQ: 0, IPC: 0.5083
TH2 ROB: 105 LSQ: 87 IQ: 96, IPC: 1.6870
TH3 ROB: 4 LSQ: 2 IQ: 0, IPC: 0.0005
EPOCH ENDS
EPOCH STARTS
TH0 ROB: 4 LSQ: 0 IQ: 0 IPC: 0.0003
TH1 ROB: 4 LSQ: 1 IQ: 0, IPC: 0.5069
TH2 ROB: 106 LSQ: 87 IQ: 96, IPC: 1.6884
TH3 ROB: 4 LSQ: 2 IQ: 0, IPC: 0.0005
EPOCH ENDS
EPOCH STARTS
TH0 ROB: 4 LSQ: 0 IQ: 0 IPC: 0.0003
TH1 ROB: 4 LSQ: 1 IQ: 0, IPC: 0.5056
TH2 ROB: 104 LSQ: 85 IQ: 96, IPC: 1.6897
TH3 ROB: 4 LSQ: 2 IQ: 0, IPC: 0.0005
EPOCH ENDS
EPOCH STARTS
TH0 ROB: 4 LSQ: 0 IQ: 0 IPC: 0.0003
TH1 ROB: 4 LSQ: 1 IQ: 0, IPC: 0.5042
TH2 ROB: 104 LSQ: 85 IQ: 96, IPC: 1.6911
TH3 ROB: 4 LSQ: 2 IQ: 0, IPC: 0.0005
EPOCH ENDS
EPOCH STARTS
TH0 ROB: 4 LSQ: 0 IQ: 0 IPC: 0.0003
TH1 ROB: 4 LSQ: 1 IQ: 0, IPC: 0.5029
TH2 ROB: 104 LSQ: 85 IQ: 96, IPC: 1.6925
TH3 ROB: 4 LSQ: 2 IQ: 0, IPC: 0.0005
EPOCH ENDS
EPOCH STARTS
TH0 ROB: 4 LSQ: 0 IQ: 0 IPC: 0.0003
TH1 ROB: 4 LSQ: 1 IQ: 0, IPC: 0.5015
TH2 ROB: 105 LSQ: 87 IQ: 96, IPC: 1.6938
TH3 ROB: 4 LSQ: 2 IQ: 0, IPC: 0.0005
EPOCH ENDS
EPOCH STARTS
TH0 ROB: 4 LSQ: 0 IQ: 0 IPC: 0.0003
TH1 ROB: 4 LSQ: 1 IQ: 0, IPC: 0.5002
TH2 ROB: 105 LSQ: 86 IQ: 96, IPC: 1.6951
TH3 ROB: 4 LSQ: 2 IQ: 0, IPC: 0.0005
EPOCH ENDS
EPOCH STARTS
TH0 ROB: 4 LSQ: 0 IQ: 0 IPC: 0.0003
TH1 ROB: 4 LSQ: 1 IQ: 0, IPC: 0.4989
TH2 ROB: 104 LSQ: 85 IQ: 96, IPC: 1.6965
TH3 ROB: 4 LSQ: 2 IQ: 0, IPC: 0.0005
EPOCH ENDS
EPOCH STARTS
TH0 ROB: 4 LSQ: 0 IQ: 0 IPC: 0.0003
TH1 ROB: 4 LSQ: 1 IQ: 0, IPC: 0.4975
TH2 ROB: 104 LSQ: 85 IQ: 96, IPC: 1.6978
TH3 ROB: 4 LSQ: 2 IQ: 0, IPC: 0.0005
EPOCH ENDS
EPOCH STARTS
TH0 ROB: 4 LSQ: 0 IQ: 0 IPC: 0.0003
TH1 ROB: 4 LSQ: 1 IQ: 0, IPC: 0.4962
TH2 ROB: 104 LSQ: 87 IQ: 96, IPC: 1.6991
TH3 ROB: 4 LSQ: 2 IQ: 0, IPC: 0.0005
EPOCH ENDS
EPOCH STARTS
TH0 ROB: 4 LSQ: 0 IQ: 0 IPC: 0.0003
TH1 ROB: 4 LSQ: 1 IQ: 0, IPC: 0.4949
TH2 ROB: 105 LSQ: 87 IQ: 96, IPC: 1.7004
TH3 ROB: 4 LSQ: 2 IQ: 0, IPC: 0.0005
EPOCH ENDS
EPOCH STARTS
TH0 ROB: 4 LSQ: 0 IQ: 0 IPC: 0.0003
TH1 ROB: 4 LSQ: 1 IQ: 0, IPC: 0.4936
TH2 ROB: 105 LSQ: 85 IQ: 96, IPC: 1.7017
TH3 ROB: 4 LSQ: 2 IQ: 0, IPC: 0.0005
EPOCH ENDS
EPOCH STARTS
TH0 ROB: 4 LSQ: 0 IQ: 0 IPC: 0.0003
TH1 ROB: 4 LSQ: 1 IQ: 0, IPC: 0.4923
TH2 ROB: 104 LSQ: 85 IQ: 96, IPC: 1.7030
TH3 ROB: 4 LSQ: 2 IQ: 0, IPC: 0.0005
EPOCH ENDS
EPOCH STARTS
TH0 ROB: 4 LSQ: 0 IQ: 0 IPC: 0.0003
TH1 ROB: 4 LSQ: 1 IQ: 0, IPC: 0.4910
TH2 ROB: 104 LSQ: 85 IQ: 96, IPC: 1.7043
TH3 ROB: 4 LSQ: 2 IQ: 0, IPC: 0.0005
EPOCH ENDS
EPOCH STARTS
TH0 ROB: 4 LSQ: 0 IQ: 0 IPC: 0.0003
TH1 ROB: 4 LSQ: 1 IQ: 0, IPC: 0.4897
TH2 ROB: 104 LSQ: 86 IQ: 96, IPC: 1.7056
TH3 ROB: 4 LSQ: 2 IQ: 0, IPC: 0.0005
EPOCH ENDS
EPOCH STARTS
TH0 ROB: 4 LSQ: 0 IQ: 0 IPC: 0.0003
TH1 ROB: 4 LSQ: 1 IQ: 0, IPC: 0.4885
TH2 ROB: 107 LSQ: 88 IQ: 96, IPC: 1.7069
TH3 ROB: 4 LSQ: 2 IQ: 0, IPC: 0.0005
EPOCH ENDS
EPOCH STARTS
TH0 ROB: 4 LSQ: 0 IQ: 0 IPC: 0.0003
TH1 ROB: 4 LSQ: 1 IQ: 0, IPC: 0.4872
TH2 ROB: 105 LSQ: 86 IQ: 96, IPC: 1.7081
TH3 ROB: 4 LSQ: 2 IQ: 0, IPC: 0.0005
EPOCH ENDS
EPOCH STARTS
TH0 ROB: 4 LSQ: 0 IQ: 0 IPC: 0.0003
TH1 ROB: 4 LSQ: 1 IQ: 0, IPC: 0.4859
TH2 ROB: 105 LSQ: 85 IQ: 96, IPC: 1.7094
TH3 ROB: 4 LSQ: 2 IQ: 0, IPC: 0.0005
EPOCH ENDS
EPOCH STARTS
TH0 ROB: 4 LSQ: 0 IQ: 0 IPC: 0.0003
TH1 ROB: 4 LSQ: 1 IQ: 0, IPC: 0.4847
TH2 ROB: 104 LSQ: 85 IQ: 96, IPC: 1.7107
TH3 ROB: 4 LSQ: 2 IQ: 0, IPC: 0.0005
EPOCH ENDS
EPOCH STARTS
TH0 ROB: 4 LSQ: 0 IQ: 0 IPC: 0.0003
TH1 ROB: 4 LSQ: 1 IQ: 0, IPC: 0.4834
TH2 ROB: 105 LSQ: 87 IQ: 96, IPC: 1.7119
TH3 ROB: 4 LSQ: 2 IQ: 0, IPC: 0.0005
EPOCH ENDS
EPOCH STARTS
TH0 ROB: 4 LSQ: 0 IQ: 0 IPC: 0.0003
TH1 ROB: 4 LSQ: 1 IQ: 0, IPC: 0.4822
TH2 ROB: 105 LSQ: 86 IQ: 96, IPC: 1.7132
TH3 ROB: 4 LSQ: 2 IQ: 0, IPC: 0.0005
EPOCH ENDS
EPOCH STARTS
TH0 ROB: 4 LSQ: 0 IQ: 0 IPC: 0.0003
TH1 ROB: 4 LSQ: 1 IQ: 0, IPC: 0.4809
TH2 ROB: 104 LSQ: 85 IQ: 96, IPC: 1.7144
TH3 ROB: 4 LSQ: 2 IQ: 0, IPC: 0.0005
EPOCH ENDS
EPOCH STARTS
TH0 ROB: 4 LSQ: 0 IQ: 0 IPC: 0.0003
TH1 ROB: 4 LSQ: 1 IQ: 0, IPC: 0.4797
TH2 ROB: 105 LSQ: 86 IQ: 96, IPC: 1.7156
TH3 ROB: 4 LSQ: 2 IQ: 0, IPC: 0.0005
EPOCH ENDS
EPOCH STARTS
TH0 ROB: 4 LSQ: 0 IQ: 0 IPC: 0.0003
TH1 ROB: 4 LSQ: 1 IQ: 0, IPC: 0.4785
TH2 ROB: 105 LSQ: 87 IQ: 96, IPC: 1.7169
TH3 ROB: 4 LSQ: 2 IQ: 0, IPC: 0.0005
EPOCH ENDS
EPOCH STARTS
TH0 ROB: 4 LSQ: 0 IQ: 0 IPC: 0.0003
TH1 ROB: 4 LSQ: 1 IQ: 0, IPC: 0.4773
TH2 ROB: 105 LSQ: 87 IQ: 96, IPC: 1.7181
TH3 ROB: 4 LSQ: 2 IQ: 0, IPC: 0.0005
EPOCH ENDS
EPOCH STARTS
TH0 ROB: 4 LSQ: 0 IQ: 0 IPC: 0.0003
TH1 ROB: 4 LSQ: 1 IQ: 0, IPC: 0.4761
TH2 ROB: 106 LSQ: 87 IQ: 96, IPC: 1.7193
TH3 ROB: 4 LSQ: 2 IQ: 0, IPC: 0.0005
EPOCH ENDS
EPOCH STARTS
TH0 ROB: 4 LSQ: 0 IQ: 0 IPC: 0.0003
TH1 ROB: 4 LSQ: 1 IQ: 0, IPC: 0.4749
TH2 ROB: 104 LSQ: 85 IQ: 96, IPC: 1.7205
TH3 ROB: 4 LSQ: 2 IQ: 0, IPC: 0.0005
EPOCH ENDS
EPOCH STARTS
[...]
Thread_3_cpred_bimod.retstack_pops            0 # total number of address popped off of ret-addr stack
Thread_3_cpred_bimod.used_ras.PP            0 # total number of RAS predictions used
Thread_3_cpred_bimod.ras_hits.PP            0 # total number of RAS hits
Thread_3_cpred_bimod.ras_rate.PP <error: divide by zero> # RAS prediction rate (i.e., RAS hits/used RAS)
il1.accesses              605198681 # total number of accesses
il1.hits                  605198367 # total number of hits
il1.misses                      314 # total number of misses
il1.replacements                314 # total number of replacements
il1.writebacks                    0 # total number of writebacks
il1.invalidations                 0 # total number of invalidations
il1.miss_rate                0.0000 # miss rate (i.e., misses/ref)
il1.repl_rate                0.0000 # replacement rate (i.e., repls/ref)
il1.wb_rate                  0.0000 # writeback rate (i.e., wrbks/ref)
il1.inv_rate                 0.0000 # invalidation rate (i.e., invs/ref)
dl1.accesses              302396774 # total number of accesses
dl1.hits                  292170539 # total number of hits
dl1.misses                 10226235 # total number of misses
dl1.replacements           10226235 # total number of replacements
dl1.writebacks             10225168 # total number of writebacks
dl1.invalidations                 0 # total number of invalidations
dl1.miss_rate                0.0338 # miss rate (i.e., misses/ref)
dl1.repl_rate                0.0338 # replacement rate (i.e., repls/ref)
dl1.wb_rate                  0.0338 # writeback rate (i.e., wrbks/ref)
dl1.inv_rate                 0.0000 # invalidation rate (i.e., invs/ref)
ul2.accesses               20451717 # total number of accesses
ul2.hits                   15335821 # total number of hits
ul2.misses                  5115896 # total number of misses
ul2.replacements            5115896 # total number of replacements
ul2.writebacks              5113071 # total number of writebacks
ul2.invalidations                 0 # total number of invalidations
ul2.miss_rate                0.2501 # miss rate (i.e., misses/ref)
ul2.repl_rate                0.2501 # replacement rate (i.e., repls/ref)
ul2.wb_rate                  0.2500 # writeback rate (i.e., wrbks/ref)
ul2.inv_rate                 0.0000 # invalidation rate (i.e., invs/ref)
itlb.accesses             605198681 # total number of accesses
itlb.hits                 605198659 # total number of hits
itlb.misses                      22 # total number of misses
itlb.replacements                22 # total number of replacements
itlb.writebacks                   0 # total number of writebacks
itlb.invalidations                0 # total number of invalidations
itlb.miss_rate               0.0000 # miss rate (i.e., misses/ref)
itlb.repl_rate               0.0000 # replacement rate (i.e., repls/ref)
itlb.wb_rate                 0.0000 # writeback rate (i.e., wrbks/ref)
itlb.inv_rate                0.0000 # invalidation rate (i.e., invs/ref)
dtlb.accesses             394783930 # total number of accesses
dtlb.hits                 394702812 # total number of hits
dtlb.misses                   81118 # total number of misses
dtlb.replacements             81118 # total number of replacements
dtlb.writebacks                   0 # total number of writebacks
dtlb.invalidations                0 # total number of invalidations
dtlb.miss_rate               0.0002 # miss rate (i.e., misses/ref)
dtlb.repl_rate               0.0002 # replacement rate (i.e., repls/ref)
dtlb.wb_rate                 0.0000 # writeback rate (i.e., wrbks/ref)
dtlb.inv_rate                0.0000 # invalidation rate (i.e., invs/ref)
sim_invalid_addrs                 0 # total non-speculative bogus addresses seen (debug var)
ld_text_base           0x0120000000 # program text (code) segment base
mem->ld_text_size            589824 # program text (code) size in bytes
mem->ld_data_base      0x0140000000 # program initialized data segment base
mem->ld_data_size            179872 # program init'ed `.data' and uninit'ed `.bss' size in bytes
mem->ld_stack_base     0x011ff9b000 # program stack segment base (highest address in stack)
mem->ld_stack_size            16384 # program initial stack size
mem->ld_prog_entry     0x0120000300 # program entry point (initial PC)
mem->ld_environ_base   0x011ff97000 # program environment base address address
mem->ld_target_big_endian            0 # target executable endian-ness, non-zero if big endian
mem_0.page_count                106 # total number of pages allocated
mem_0.page_mem                 848k # total size of memory pages allocated
mem_0.ptab_misses              2193 # total first level page table misses
mem_0.ptab_accesses        61263444 # total page table accesses
mem_0.ptab_miss_rate         0.0000 # first level page table miss rate
ld_text_base           0x0120000000 # program text (code) segment base
mem->ld_text_size            401408 # program text (code) size in bytes
mem->ld_data_base      0x0140000000 # program initialized data segment base
mem->ld_data_size             70816 # program init'ed `.data' and uninit'ed `.bss' size in bytes
mem->ld_stack_base     0x011ff9b000 # program stack segment base (highest address in stack)
mem->ld_stack_size            16384 # program initial stack size
mem->ld_prog_entry     0x012000ff40 # program entry point (initial PC)
mem->ld_environ_base   0x011ff97000 # program environment base address address
mem->ld_target_big_endian            0 # target executable endian-ness, non-zero if big endian
mem_0.page_count               4157 # total number of pages allocated
mem_0.page_mem                 848k # total size of memory pages allocated
mem_0.ptab_misses              6325 # total first level page table misses
mem_0.ptab_accesses       223552526 # total page table accesses
mem_0.ptab_miss_rate         0.0000 # first level page table miss rate
ld_text_base           0x0120000000 # program text (code) segment base
mem->ld_text_size            352256 # program text (code) size in bytes
mem->ld_data_base      0x0140000000 # program initialized data segment base
mem->ld_data_size            121360 # program init'ed `.data' and uninit'ed `.bss' size in bytes
mem->ld_stack_base     0x011ff9b000 # program stack segment base (highest address in stack)
mem->ld_stack_size            16384 # program initial stack size
mem->ld_prog_entry     0x0120000300 # program entry point (initial PC)
mem->ld_environ_base   0x011ff97000 # program environment base address address
mem->ld_target_big_endian            0 # target executable endian-ness, non-zero if big endian
mem_0.page_count              41464 # total number of pages allocated
mem_0.page_mem                 848k # total size of memory pages allocated
mem_0.ptab_misses             47583 # total first level page table misses
mem_0.ptab_accesses      2248460824 # total page table accesses
mem_0.ptab_miss_rate         0.0000 # first level page table miss rate
ld_text_base           0x0120000000 # program text (code) segment base
mem->ld_text_size           2285568 # program text (code) size in bytes
mem->ld_data_base      0x0140000000 # program initialized data segment base
mem->ld_data_size            152368 # program init'ed `.data' and uninit'ed `.bss' size in bytes
mem->ld_stack_base     0x011ff9b000 # program stack segment base (highest address in stack)
mem->ld_stack_size            16384 # program initial stack size
mem->ld_prog_entry     0x01200b9a00 # program entry point (initial PC)
mem->ld_environ_base   0x011ff97000 # program environment base address address
mem->ld_target_big_endian            0 # target executable endian-ness, non-zero if big endian
mem_0.page_count                300 # total number of pages allocated
mem_0.page_mem                 848k # total size of memory pages allocated
mem_0.ptab_misses               359 # total first level page table misses
mem_0.ptab_accesses      5479425840 # total page table accesses
mem_0.ptab_miss_rate         0.0000 # first level page table miss rate
rename_power           170831330.8521 # total power usage of rename unit
bpred_power            1130781596.2667 # total power usage of bpred unit
window_power           3569047442.0555 # total power usage of instruction window
lsq_power              1992927240.4008 # total power usage of load/store queue
regfile_power          893118024.3201 # total power usage of arch. regfile
icache_power           1058450497.7872 # total power usage of icache
dcache_power           2311943843.8834 # total power usage of dcache
dcache2_power          1300033981.9295 # total power usage of dcache2
alu_power              4735293863.5147 # total power usage of alu
falu_power             3570261239.8660 # total power usage of falu
resultbus_power        2253231538.7770 # total power usage of resultbus
clock_power            7621587330.2502 # total power usage of clock
avg_rename_power             0.6833 # avg power usage of rename unit
avg_bpred_power              4.5231 # avg power usage of bpred unit
avg_window_power            14.2762 # avg power usage of instruction window
avg_lsq_power                7.9717 # avg power usage of lsq
avg_regfile_power            3.5725 # avg power usage of arch. regfile
avg_icache_power             4.2338 # avg power usage of icache
avg_dcache_power             9.2478 # avg power usage of dcache
avg_dcache2_power            5.2001 # avg power usage of dcache2
avg_alu_power               18.9412 # avg power usage of alu
avg_falu_power              14.2810 # avg power usage of falu
avg_resultbus_power          9.0129 # avg power usage of resultbus
avg_clock_power             30.4863 # avg power usage of clock
fetch_stage_power      2189232094.0540 # total power usage of fetch stage
dispatch_stage_power   170831330.8521 # total power usage of dispatch stage
issue_stage_power      16162477910.5610 # total power usage of issue stage
avg_fetch_power              8.7569 # average power of fetch unit per cycle
avg_dispatch_power           0.6833 # average power of dispatch unit per cycle
avg_issue_power             64.6499 # average power of issue unit per cycle
total_power            27037246690.0374 # total power per cycle
avg_total_power_cycle      108.1490 # average total power per cycle
avg_total_power_cycle_nofp_nod2      88.6678 # average total power per cycle
avg_total_power_insn        44.6751 # average total power per insn
avg_total_power_insn_nofp_nod2      36.6276 # average total power per insn
rename_power_cc1       170824153.8863 # total power usage of rename unit_cc1
bpred_power_cc1        441055216.6824 # total power usage of bpred unit_cc1
window_power_cc1       3929283172.5700 # total power usage of instruction window_cc1
lsq_power_cc1          1688751912.1988 # total power usage of lsq_cc1
regfile_power_cc1      843357927.7007 # total power usage of arch. regfile_cc1
icache_power_cc1       1058373798.2309 # total power usage of icache_cc1
dcache_power_cc1       1504749958.6729 # total power usage of dcache_cc1
dcache2_power_cc1      53179345.9302 # total power usage of dcache2_cc1
alu_power_cc1          1165129898.3841 # total power usage of alu_cc1
resultbus_power_cc1    2157854326.6751 # total power usage of resultbus_cc1
clock_power_cc1        5436610709.6927 # total power usage of clock_cc1
avg_rename_power_cc1         0.6833 # avg power usage of rename unit_cc1
avg_bpred_power_cc1          1.7642 # avg power usage of bpred unit_cc1
avg_window_power_cc1        15.7171 # avg power usage of instruction window_cc1
avg_lsq_power_cc1            6.7550 # avg power usage of lsq_cc1
avg_regfile_power_cc1        3.3734 # avg power usage of arch. regfile_cc1
avg_icache_power_cc1         4.2335 # avg power usage of icache_cc1
avg_dcache_power_cc1         6.0190 # avg power usage of dcache_cc1
avg_dcache2_power_cc1        0.2127 # avg power usage of dcache2_cc1
avg_alu_power_cc1            4.6605 # avg power usage of alu_cc1
avg_resultbus_power_cc1       8.6314 # avg power usage of resultbus_cc1
avg_clock_power_cc1         21.7464 # avg power usage of clock_cc1
fetch_stage_power_cc1  1499429014.9133 # total power usage of fetch stage_cc1
dispatch_stage_power_cc1 170824153.8863 # total power usage of dispatch stage_cc1
issue_stage_power_cc1  10498948614.4311 # total power usage of issue stage_cc1
avg_fetch_power_cc1          5.9977 # average power of fetch unit per cycle_cc1
avg_dispatch_power_cc1       0.6833 # average power of dispatch unit per cycle_cc1
avg_issue_power_cc1         41.9958 # average power of issue unit per cycle_cc1
total_power_cycle_cc1  18449170420.6241 # total power per cycle_cc1
avg_total_power_cycle_cc1      73.7967 # average total power per cycle_cc1
avg_total_power_insn_cc1      30.4846 # average total power per insn_cc1
rename_power_cc2       103386644.9755 # total power usage of rename unit_cc2
bpred_power_cc2        220531529.8918 # total power usage of bpred unit_cc2
window_power_cc2       3860712321.7446 # total power usage of instruction window_cc2
lsq_power_cc2          875257966.4762 # total power usage of lsq_cc2
regfile_power_cc2      140445059.5069 # total power usage of arch. regfile_cc2
icache_power_cc2       1058373798.2309 # total power usage of icache_cc2
dcache_power_cc2       1398248722.2425 # total power usage of dcache_cc2
dcache2_power_cc2      53175854.0389 # total power usage of dcache2_cc2
alu_power_cc2          699139167.0411 # total power usage of alu_cc2
resultbus_power_cc2    1654341132.0625 # total power usage of resultbus_cc2
clock_power_cc2        4213896919.3371 # total power usage of clock_cc2
avg_rename_power_cc2         0.4135 # avg power usage of rename unit_cc2
avg_bpred_power_cc2          0.8821 # avg power usage of bpred unit_cc2
avg_window_power_cc2        15.4428 # avg power usage of instruction window_cc2
avg_lsq_power_cc2            3.5010 # avg power usage of instruction lsq_cc2
avg_regfile_power_cc2        0.5618 # avg power usage of arch. regfile_cc2
avg_icache_power_cc2         4.2335 # avg power usage of icache_cc2
avg_dcache_power_cc2         5.5930 # avg power usage of dcache_cc2
avg_dcache2_power_cc2        0.2127 # avg power usage of dcache2_cc2
avg_alu_power_cc2            2.7966 # avg power usage of alu_cc2
avg_resultbus_power_cc2       6.6174 # avg power usage of resultbus_cc2
avg_clock_power_cc2         16.8556 # avg power usage of clock_cc2
fetch_stage_power_cc2  1278905328.1227 # total power usage of fetch stage_cc2
dispatch_stage_power_cc2 103386644.9755 # total power usage of dispatch stage_cc2
issue_stage_power_cc2  8540875163.6059 # total power usage of issue stage_cc2
avg_fetch_power_cc2          5.1156 # average power of fetch unit per cycle_cc2
avg_dispatch_power_cc2       0.4135 # average power of dispatch unit per cycle_cc2
avg_issue_power_cc2         34.1635 # average power of issue unit per cycle_cc2
total_power_cycle_cc2  14277509115.5480 # total power per cycle_cc2
avg_total_power_cycle_cc2      57.1100 # average total power per cycle_cc2
avg_total_power_insn_cc2      23.5915 # average total power per insn_cc2
rename_power_cc3       103387362.6721 # total power usage of rename unit_cc3
bpred_power_cc3        289504190.8171 # total power usage of bpred unit_cc3
window_power_cc3       3860716571.3943 # total power usage of instruction window_cc3
lsq_power_cc3          905675368.6454 # total power usage of lsq_cc3
regfile_power_cc3      140906396.0540 # total power usage of arch. regfile_cc3
icache_power_cc3       1058381468.1864 # total power usage of icache_cc3
dcache_power_cc3       1483696217.6096 # total power usage of dcache_cc3
dcache2_power_cc3      177861428.7831 # total power usage of dcache2_cc3
alu_power_cc3          1056155568.9419 # total power usage of alu_cc3
resultbus_power_cc3    1654345632.2165 # total power usage of resultbus_cc3
clock_power_cc3        4431089424.9105 # total power usage of clock_cc3
avg_rename_power_cc3         0.4135 # avg power usage of rename unit_cc3
avg_bpred_power_cc3          1.1580 # avg power usage of bpred unit_cc3
avg_window_power_cc3        15.4429 # avg power usage of instruction window_cc3
avg_lsq_power_cc3            3.6227 # avg power usage of instruction lsq_cc3
avg_regfile_power_cc3        0.5636 # avg power usage of arch. regfile_cc3
avg_icache_power_cc3         4.2335 # avg power usage of icache_cc3
avg_dcache_power_cc3         5.9348 # avg power usage of dcache_cc3
avg_dcache2_power_cc3        0.7114 # avg power usage of dcache2_cc3
avg_alu_power_cc3            4.2246 # avg power usage of alu_cc3
avg_resultbus_power_cc3       6.6174 # avg power usage of resultbus_cc3
avg_clock_power_cc3         17.7244 # avg power usage of clock_cc3
fetch_stage_power_cc3  1347885659.0035 # total power usage of fetch stage_cc3
dispatch_stage_power_cc3 103387362.6721 # total power usage of dispatch stage_cc3
issue_stage_power_cc3  9138450787.5908 # total power usage of issue stage_cc3
avg_fetch_power_cc3          5.3915 # average power of fetch unit per cycle_cc3
avg_dispatch_power_cc3       0.4135 # average power of dispatch unit per cycle_cc3
avg_issue_power_cc3         36.5538 # average power of issue unit per cycle_cc3
total_power_cycle_cc3  15161719630.2309 # total power per cycle_cc3
avg_total_power_cycle_cc3      60.6469 # average total power per cycle_cc3
avg_total_power_insn_cc3      25.0525 # average total power per insn_cc3
total_rename_access       605197208 # total number accesses of rename unit
total_bpred_access         97512875 # total number accesses of bpred unit
total_window_access      2692427861 # total number accesses of instruction window
total_lsq_access          394784006 # total number accesses of load/store queue
total_regfile_access      502566552 # total number accesses of arch. regfile
total_icache_access       605198926 # total number accesses of icache
total_dcache_access       302396774 # total number accesses of dcache
total_dcache2_access       20451717 # total number accesses of dcache2
total_alu_access          600081697 # total number accesses of alu
total_resultbus_access    769168093 # total number accesses of resultbus
avg_rename_access            2.4208 # avg number accesses of rename unit
avg_bpred_access             0.3901 # avg number accesses of bpred unit
avg_window_access           10.7697 # avg number accesses of instruction window
avg_lsq_access               1.5791 # avg number accesses of lsq
avg_regfile_access           2.0103 # avg number accesses of arch. regfile
avg_icache_access            2.4208 # avg number accesses of icache
avg_dcache_access            1.2096 # avg number accesses of dcache
avg_dcache2_access           0.0818 # avg number accesses of dcache2
avg_alu_access               2.4003 # avg number accesses of alu
avg_resultbus_access         3.0767 # avg number accesses of resultbus
max_rename_access                 4 # max number accesses of rename unit
max_bpred_access                  4 # max number accesses of bpred unit
max_window_access                94 # max number accesses of instruction window
max_lsq_access                    4 # max number accesses of load/store queue
max_regfile_access               12 # max number accesses of arch. regfile
max_icache_access                 4 # max number accesses of icache
max_dcache_access                 4 # max number accesses of dcache
max_dcache2_access                6 # max number accesses of dcache2
max_alu_access                    4 # max number accesses of alu
max_resultbus_access             87 # max number accesses of resultbus
max_cycle_power_cc1        311.7861 # maximum cycle power usage of cc1
max_cycle_power_cc2        299.3663 # maximum cycle power usage of cc2
max_cycle_power_cc3        301.8751 # maximum cycle power usage of cc3


******* SMT STATS *******
THROUGHPUT IPC: 2.4208

TH0 IPC: 0.0002

TH1 IPC: 0.0190

TH2 IPC: 0.5538

TH3 IPC: 1.8478

