sim-outorder: SimpleScalar/Alpha Tool Set version 3.0 of August, 2003.
Copyright (c) 1994-2003 by Todd M. Austin, Ph.D. and SimpleScalar, LLC.
All Rights Reserved. This version of SimpleScalar is licensed for academic
non-commercial use.  No portion of this work may be used by any commercial
entity, or for any commercial purpose, without the prior written permission
of SimpleScalar, LLC (info@simplescalar.com).


Processor Parameters:
Issue Width: 4
Window Size: 224
Number of Virtual Registers: 32
Number of Physical Registers: 256
Datapath Width: 64
Total Power Consumption: 110.149
Branch Predictor Power Consumption: 4.52313  (4.18%)
 branch target buffer power (W): 4.16837
 local predict power (W): 0.0879711
 global predict power (W): 0.0996078
 chooser power (W): 0.0702439
 RAS power (W): 0.0969383
Rename Logic Power Consumption: 0.683325  (0.632%)
 Instruction Decode Power (W): 0.0159915
 RAT decode_power (W): 0.113514
 RAT wordline_power (W): 0.0493708
 RAT bitline_power (W): 0.493541
 DCL Comparators (W): 0.0109075
Instruction Window Power Consumption: 14.2762  (13.2%)
 tagdrive (W): 0.827064
 tagmatch (W): 0.360565
 Selection Logic (W): 0.0885831
 decode_power (W): 1.16922
 wordline_power (W): 0.0844643
 bitline_power (W): 11.7463
Load/Store Queue Power Consumption: 7.97171  (7.37%)
 tagdrive (W): 3.75392
 tagmatch (W): 1.61238
 decode_power (W): 0.181222
 wordline_power (W): 0.0150119
 bitline_power (W): 2.40917
Arch. Register File Power Consumption: 3.57247  (3.3%)
 decode_power (W): 0.113514
 wordline_power (W): 0.0844643
 bitline_power (W): 3.37449
Result Bus Power Consumption: 9.01293  (8.33%)
Total Clock Power: 30.4863  (28.2%)
Int ALU Power: 4.66013  (4.31%)
FP ALU Power: 14.281  (13.2%)
Instruction Cache Power Consumption: 3.97049  (3.67%)
 decode_power (W): 1.67268
 wordline_power (W): 0.028656
 bitline_power (W): 1.5122
 senseamp_power (W): 0.096
 tagarray_power (W): 0.660946
Itlb_power (W): 0.263317 (0.243%)
Data Cache Power Consumption: 8.34726  (7.72%)
 decode_power (W): 1.44978
 wordline_power (W): 0.196735
 bitline_power (W): 4.58765
 senseamp_power (W): 0.768
 tagarray_power (W): 1.34509
Dtlb_power (W): 0.900515 (0.833%)
Level 2 Cache Power Consumption: 5.20014 (4.81%)
 decode_power (W): 0.41817
 wordline_power (W): 0.0430878
 bitline_power (W): 3.0244
 senseamp_power (W): 0.192
 tagarray_power (W): 1.52247
sim-main: initalizing context 0:hmmerNS.1.arg
args: 0:./hmmer.base.alpha 1:./nph3.hmm 2:./swiss41 
sim: loading binary...
sim: loading ./hmmer.base.alpha
sim-main: initalizing context 1:libquantumNS.1.arg
args: 0:./libquantum.base.alpha 1:1397 2:8 
sim: loading binary...
sim: loading ./libquantum.base.alpha
warning: section `.comment' ignored...
sim-main: initalizing context 2:namdNS.1.arg
args: 0:./namd.base.alpha 1:--input 2:./namd.input 3:--iterations 4:38 5:--output 6:./namd.out 
sim: loading binary...
sim: loading ./namd.base.alpha
warning: section `.comment' ignored...
sim-main: initalizing context 3:omnetppNS.1.arg
args: 0:./omnetpp.base.alpha 1:./omnetpp.ini 
sim: loading binary...
sim: loading ./omnetpp.base.alpha
warning: section `.comment' ignored...
sim: command line: ../m-sim_v2.0/sim-outorder hmmerNS.1.arg libquantumNS.1.arg namdNS.1.arg omnetppNS.1.arg 

sim: simulation started @ Tue Aug  9 12:00:40 2022, options follow:

sim-outorder: This simulator implements a very detailed out-of-order issue
superscalar processor with a two-level memory system and speculative
execution support.  This simulator is a performance simulator, tracking the
latency of all pipeline operations.

# -config                     # load configuration from a file
# -dumpconfig                 # dump configuration to a file
# -h                    false # print help message    
# -v                    false # verbose operation     
# -d                    false # enable debug message  
# -i                    false # start in Dlite debugger
-seed                       1 # random number generator seed (0 for timer seed)
# -q                    false # initialize and terminate immediately
# -redir:sim           <null> # redirect simulator output to file (non-interactive only)
# -redir:prog          <null> # redirect simulated program output to file
-nice                       0 # simulator scheduling priority
-max:inst           250000000 # maximum number of inst's to execute
-fastfwd             10000000 # number of insts skipped before timing starts
# -ptrace              <null> # generate pipetrace, i.e., <fname|stdout|stderr> <range>
-fetch:speed                1 # speed of front-end of machine relative to execution core
-bpred                  bimod # branch predictor type {nottaken|taken|perfect|bimod|2lev|comb}
-bpred:bimod     2048 # bimodal predictor config (<table size>)
-bpred:2lev      1 1024 8 0 # 2-level predictor config (<l1size> <l2size> <hist_size> <xor>)
-bpred:comb      1024 # combining predictor config (<meta_table_size>)
-bpred:ras                  8 # return address stack size (0 for no return stack)
-bpred:btb       512 4 # BTB config (<num_sets> <associativity>)
# -bpred:spec_update       <null> # speculative predictors update in {ID|WB} (default non-spec)
-cpred                  bimod # cache load-latency predictor type {nottaken|taken|perfect|bimod|2lev|comb}
-cpred:bimod     2048 # cache load-latency bimodal predictor config (<table size>)
-cpred:2lev      1 1024 8 0 # cache load-latency 2-level predictor config (<l1size> <l2size> <hist_size> <xor>)
-cpred:comb      1024 # cache load-latency combining predictor config (<meta_table_size>)
-cpred:ras                  0 # return address stack size (0 for no return stack)
-cpred:btb       512 4 # cache load-latency BTB config (<num_sets> <associativity>)
-decode:width               4 # instruction decode B/W (insts/cycle)
-issue:width                4 # instruction issue B/W (insts/cycle)
-issue:inorder          false # run pipeline with in-order issue
-issue:wrongpath         true # issue instructions down wrong execution paths
-commit:width               4 # instruction commit B/W (insts/cycle)
-rob:size                 224 # reorder buffer (ROB) size
-fetch:policy |icount|round_robin|       icount # fetch policy          
-recovery:model        squash # Alpha squash recovery or perfect predition: |squash|perfect|
-iq:size                   96 # issue queue (IQ) size 
-iq:issue_exec_delay            1 # minimum cycles between issue and execution
-fetch_rename_delay            4 # number of cycles between fetch and rename stages
-rename_dispatch_delay            1 # number cycles between rename and dispatch stages
-rf:size                  256 # register file (RF) size for each the INT and FP physical register file)
-lsq:size                 128 # load/store queue (LSQ) size
-cache:dl1       dl1:256:32:4:l # l1 data cache config, i.e., {<config>|none}
-cache:dl1lat               1 # l1 data cache hit latency (in cycles)
-cache:dl2       ul2:1024:64:8:l # l2 data cache config, i.e., {<config>|none}
-cache:dl2lat               6 # l2 data cache hit latency (in cycles)
-cache:il1       il1:512:32:2:l # l1 inst cache config, i.e., {<config>|dl1|dl2|none}
-cache:il1lat               1 # l1 instruction cache hit latency (in cycles)
-cache:il2                dl2 # l2 instruction cache config, i.e., {<config>|dl2|none}
-cache:il2lat               6 # l2 instruction cache hit latency (in cycles)
-cache:flush            false # flush caches on system calls
-cache:icompress        false # convert 64-bit inst addresses to 32-bit inst equivalents
-mem:lat         100 2 # memory access latency (<first_chunk> <inter_chunk>)
-mem:width                  8 # memory access bus width (in bytes)
-tlb:itlb        itlb:16:4096:4:l # instruction TLB config, i.e., {<config>|none}
-tlb:dtlb        dtlb:32:4096:4:l # data TLB config, i.e., {<config>|none}
-tlb:lat                   30 # inst/data TLB miss latency (in cycles)
-res:ialu                   4 # total number of integer ALU's available
-res:imult                  1 # total number of integer multiplier/dividers available
-res:memport                2 # total number of memory system ports available (to CPU)
-res:fpalu                  4 # total number of floating point ALU's available
-res:fpmult                 1 # total number of floating point multiplier/dividers available
# -pcstat              <null> # profile stat(s) against text addr's (mult uses ok)
-power:print_stats         true # print power statistics collected by wattch?

  Pipetrace range arguments are formatted as follows:

    {{@|#}<start>}:{{@|#|+}<end>}

  Both ends of the range are optional, if neither are specified, the entire
  execution is traced.  Ranges that start with a `@' designate an address
  range to be traced, those that start with an `#' designate a cycle count
  range.  All other range values represent an instruction count range.  The
  second argument, if specified with a `+', indicates a value relative
  to the first argument, e.g., 1000:+100 == 1000:1100.  Program symbols may
  be used in all contexts.

    Examples:   -ptrace FOO.trc #0:#1000
                -ptrace BAR.trc @2000:
                -ptrace BLAH.trc :1500
                -ptrace UXXE.trc :
                -ptrace FOOBAR.trc @main:+278

  Branch predictor configuration examples for 2-level predictor:
    Configurations:   N, M, W, X
      N   # entries in first level (# of shift register(s))
      W   width of shift register(s)
      M   # entries in 2nd level (# of counters, or other FSM)
      X   (yes-1/no-0) xor history and address for 2nd level index
    Sample predictors:
      GAg     : 1, W, 2^W, 0
      GAp     : 1, W, M (M > 2^W), 0
      PAg     : N, W, 2^W, 0
      PAp     : N, W, M (M == 2^(N+W)), 0
      gshare  : 1, W, 2^W, 1
  Predictor `comb' combines a bimodal and a 2-level predictor.

  The cache config parameter <config> has the following format:

    <name>:<nsets>:<bsize>:<assoc>:<repl>

    <name>   - name of the cache being defined
    <nsets>  - number of sets in the cache
    <bsize>  - block size of the cache
    <assoc>  - associativity of the cache
    <repl>   - block replacement strategy, 'l'-LRU, 'f'-FIFO, 'r'-random

    Examples:   -cache:dl1 dl1:4096:32:1:l
                -dtlb dtlb:128:4096:32:r

  Cache levels can be unified by pointing a level of the instruction cache
  hierarchy at the data cache hiearchy using the "dl1" and "dl2" cache
  configuration arguments.  Most sensible combinations are supported, e.g.,

    A unified l2 cache (il2 is pointed at dl2):
      -cache:il1 il1:128:64:1:l -cache:il2 dl2
      -cache:dl1 dl1:256:32:1:l -cache:dl2 ul2:1024:64:2:l

    Or, a fully unified cache hierarchy (il1 pointed at dl1):
      -cache:il1 dl1
      -cache:dl1 ul1:256:32:1:l -cache:dl2 ul2:1024:64:2:l



sim: ** fast forwarding insts **
warning: unsupported ioctl call: ioctl(536900702, ...)
warning: invalid/unimplemented syscall 226, PC=0x1200b4a54, RA=0x120098314, winging it
warning: unsupported ioctl call: ioctl(536900702, ...)
sim: ** starting performance simulation **
EPOCH STARTS
TH0 ROB: 4 LSQ: 4 IQ: 0 IPC: 0.0723
TH1 ROB: 105 LSQ: 86 IQ: 96, IPC: 2.0118
TH2 ROB: 4 LSQ: 2 IQ: 0, IPC: 0.0717
TH3 ROB: 4 LSQ: 3 IQ: 0, IPC: 0.0859
EPOCH ENDS
EPOCH STARTS
TH0 ROB: 4 LSQ: 4 IQ: 0 IPC: 0.0362
TH1 ROB: 105 LSQ: 86 IQ: 96, IPC: 2.1039
TH2 ROB: 4 LSQ: 2 IQ: 0, IPC: 0.0358
TH3 ROB: 4 LSQ: 3 IQ: 0, IPC: 0.0429
EPOCH ENDS
EPOCH STARTS
TH0 ROB: 4 LSQ: 4 IQ: 0 IPC: 0.0241
TH1 ROB: 105 LSQ: 87 IQ: 96, IPC: 2.1346
TH2 ROB: 4 LSQ: 2 IQ: 0, IPC: 0.0239
TH3 ROB: 4 LSQ: 3 IQ: 0, IPC: 0.0286
EPOCH ENDS
EPOCH STARTS
TH0 ROB: 4 LSQ: 4 IQ: 0 IPC: 0.0181
TH1 ROB: 105 LSQ: 88 IQ: 96, IPC: 2.1500
TH2 ROB: 4 LSQ: 2 IQ: 0, IPC: 0.0179
TH3 ROB: 4 LSQ: 3 IQ: 0, IPC: 0.0215
EPOCH ENDS
EPOCH STARTS
TH0 ROB: 4 LSQ: 4 IQ: 0 IPC: 0.0145
TH1 ROB: 104 LSQ: 85 IQ: 96, IPC: 2.1592
TH2 ROB: 4 LSQ: 2 IQ: 0, IPC: 0.0143
TH3 ROB: 4 LSQ: 3 IQ: 0, IPC: 0.0172
EPOCH ENDS
EPOCH STARTS
TH0 ROB: 4 LSQ: 4 IQ: 0 IPC: 0.0121
TH1 ROB: 104 LSQ: 85 IQ: 96, IPC: 2.1654
TH2 ROB: 4 LSQ: 2 IQ: 0, IPC: 0.0119
TH3 ROB: 4 LSQ: 3 IQ: 0, IPC: 0.0143
EPOCH ENDS
EPOCH STARTS
TH0 ROB: 4 LSQ: 4 IQ: 0 IPC: 0.0103
TH1 ROB: 105 LSQ: 86 IQ: 96, IPC: 2.1697
TH2 ROB: 4 LSQ: 2 IQ: 0, IPC: 0.0102
TH3 ROB: 4 LSQ: 3 IQ: 0, IPC: 0.0123
EPOCH ENDS
EPOCH STARTS
TH0 ROB: 4 LSQ: 4 IQ: 0 IPC: 0.0090
TH1 ROB: 105 LSQ: 87 IQ: 96, IPC: 2.1730
TH2 ROB: 4 LSQ: 2 IQ: 0, IPC: 0.0090
TH3 ROB: 4 LSQ: 3 IQ: 0, IPC: 0.0107
EPOCH ENDS
EPOCH STARTS
TH0 ROB: 4 LSQ: 4 IQ: 0 IPC: 0.0080
TH1 ROB: 106 LSQ: 87 IQ: 96, IPC: 2.1756
TH2 ROB: 4 LSQ: 2 IQ: 0, IPC: 0.0080
TH3 ROB: 4 LSQ: 3 IQ: 0, IPC: 0.0095
EPOCH ENDS
EPOCH STARTS
TH0 ROB: 4 LSQ: 4 IQ: 0 IPC: 0.0072
TH1 ROB: 104 LSQ: 85 IQ: 96, IPC: 2.1776
TH2 ROB: 4 LSQ: 2 IQ: 0, IPC: 0.0072
TH3 ROB: 4 LSQ: 3 IQ: 0, IPC: 0.0086
EPOCH ENDS
EPOCH STARTS
TH0 ROB: 4 LSQ: 4 IQ: 0 IPC: 0.0066
TH1 ROB: 104 LSQ: 85 IQ: 96, IPC: 2.1793
TH2 ROB: 4 LSQ: 2 IQ: 0, IPC: 0.0065
TH3 ROB: 4 LSQ: 3 IQ: 0, IPC: 0.0078
EPOCH ENDS
EPOCH STARTS
TH0 ROB: 4 LSQ: 4 IQ: 0 IPC: 0.0060
TH1 ROB: 104 LSQ: 85 IQ: 96, IPC: 2.1807
TH2 ROB: 4 LSQ: 2 IQ: 0, IPC: 0.0060
TH3 ROB: 4 LSQ: 3 IQ: 0, IPC: 0.0072
EPOCH ENDS
EPOCH STARTS
TH0 ROB: 4 LSQ: 4 IQ: 0 IPC: 0.0056
TH1 ROB: 105 LSQ: 87 IQ: 96, IPC: 2.1819
TH2 ROB: 4 LSQ: 2 IQ: 0, IPC: 0.0055
TH3 ROB: 4 LSQ: 3 IQ: 0, IPC: 0.0066
EPOCH ENDS
EPOCH STARTS
TH0 ROB: 4 LSQ: 4 IQ: 0 IPC: 0.0052
TH1 ROB: 105 LSQ: 86 IQ: 96, IPC: 2.1829
TH2 ROB: 4 LSQ: 2 IQ: 0, IPC: 0.0051
TH3 ROB: 4 LSQ: 3 IQ: 0, IPC: 0.0061
EPOCH ENDS
EPOCH STARTS
TH0 ROB: 4 LSQ: 4 IQ: 0 IPC: 0.0048
TH1 ROB: 104 LSQ: 85 IQ: 96, IPC: 2.1838
TH2 ROB: 4 LSQ: 2 IQ: 0, IPC: 0.0048
TH3 ROB: 4 LSQ: 3 IQ: 0, IPC: 0.0057
EPOCH ENDS
EPOCH STARTS
TH0 ROB: 4 LSQ: 4 IQ: 0 IPC: 0.0045
TH1 ROB: 104 LSQ: 85 IQ: 96, IPC: 2.1846
TH2 ROB: 4 LSQ: 2 IQ: 0, IPC: 0.0045
TH3 ROB: 4 LSQ: 3 IQ: 0, IPC: 0.0054
EPOCH ENDS
EPOCH STARTS
TH0 ROB: 4 LSQ: 4 IQ: 0 IPC: 0.0043
TH1 ROB: 104 LSQ: 87 IQ: 96, IPC: 2.1852
TH2 ROB: 4 LSQ: 2 IQ: 0, IPC: 0.0042
TH3 ROB: 4 LSQ: 3 IQ: 0, IPC: 0.0051
EPOCH ENDS
EPOCH STARTS
TH0 ROB: 4 LSQ: 4 IQ: 0 IPC: 0.0040
TH1 ROB: 105 LSQ: 87 IQ: 96, IPC: 2.1858
TH2 ROB: 4 LSQ: 2 IQ: 0, IPC: 0.0040
TH3 ROB: 4 LSQ: 3 IQ: 0, IPC: 0.0048
EPOCH ENDS
EPOCH STARTS
TH0 ROB: 4 LSQ: 4 IQ: 0 IPC: 0.0038
TH1 ROB: 105 LSQ: 85 IQ: 96, IPC: 2.1864
TH2 ROB: 4 LSQ: 2 IQ: 0, IPC: 0.0038
TH3 ROB: 4 LSQ: 3 IQ: 0, IPC: 0.0045
EPOCH ENDS
EPOCH STARTS
TH0 ROB: 4 LSQ: 4 IQ: 0 IPC: 0.0036
TH1 ROB: 104 LSQ: 85 IQ: 96, IPC: 2.1869
TH2 ROB: 4 LSQ: 2 IQ: 0, IPC: 0.0036
TH3 ROB: 4 LSQ: 3 IQ: 0, IPC: 0.0043
EPOCH ENDS
EPOCH STARTS
TH0 ROB: 4 LSQ: 4 IQ: 0 IPC: 0.0034
TH1 ROB: 104 LSQ: 85 IQ: 96, IPC: 2.1873
TH2 ROB: 4 LSQ: 2 IQ: 0, IPC: 0.0034
TH3 ROB: 4 LSQ: 3 IQ: 0, IPC: 0.0041
EPOCH ENDS
EPOCH STARTS
TH0 ROB: 4 LSQ: 4 IQ: 0 IPC: 0.0033
TH1 ROB: 104 LSQ: 86 IQ: 96, IPC: 2.1877
TH2 ROB: 4 LSQ: 2 IQ: 0, IPC: 0.0033
TH3 ROB: 4 LSQ: 3 IQ: 0, IPC: 0.0039
EPOCH ENDS
EPOCH STARTS
TH0 ROB: 4 LSQ: 4 IQ: 0 IPC: 0.0031
TH1 ROB: 107 LSQ: 88 IQ: 96, IPC: 2.1881
TH2 ROB: 4 LSQ: 2 IQ: 0, IPC: 0.0031
TH3 ROB: 4 LSQ: 3 IQ: 0, IPC: 0.0037
EPOCH ENDS
EPOCH STARTS
TH0 ROB: 4 LSQ: 4 IQ: 0 IPC: 0.0030
TH1 ROB: 105 LSQ: 86 IQ: 96, IPC: 2.1884
TH2 ROB: 4 LSQ: 2 IQ: 0, IPC: 0.0030
TH3 ROB: 4 LSQ: 3 IQ: 0, IPC: 0.0036
EPOCH ENDS
EPOCH STARTS
TH0 ROB: 4 LSQ: 4 IQ: 0 IPC: 0.0029
TH1 ROB: 105 LSQ: 85 IQ: 96, IPC: 2.1887
TH2 ROB: 4 LSQ: 2 IQ: 0, IPC: 0.0029
TH3 ROB: 4 LSQ: 3 IQ: 0, IPC: 0.0034
EPOCH ENDS
EPOCH STARTS
TH0 ROB: 4 LSQ: 4 IQ: 0 IPC: 0.0028
TH1 ROB: 104 LSQ: 85 IQ: 96, IPC: 2.1890
TH2 ROB: 4 LSQ: 2 IQ: 0, IPC: 0.0028
TH3 ROB: 4 LSQ: 3 IQ: 0, IPC: 0.0033
EPOCH ENDS
EPOCH STARTS
TH0 ROB: 4 LSQ: 4 IQ: 0 IPC: 0.0027
TH1 ROB: 105 LSQ: 87 IQ: 96, IPC: 2.1893
TH2 ROB: 4 LSQ: 2 IQ: 0, IPC: 0.0027
TH3 ROB: 4 LSQ: 3 IQ: 0, IPC: 0.0032
EPOCH ENDS
EPOCH STARTS
TH0 ROB: 4 LSQ: 4 IQ: 0 IPC: 0.0026
TH1 ROB: 105 LSQ: 86 IQ: 96, IPC: 2.1895
TH2 ROB: 4 LSQ: 2 IQ: 0, IPC: 0.0026
TH3 ROB: 4 LSQ: 3 IQ: 0, IPC: 0.0031
EPOCH ENDS
EPOCH STARTS
TH0 ROB: 4 LSQ: 4 IQ: 0 IPC: 0.0025
TH1 ROB: 104 LSQ: 85 IQ: 96, IPC: 2.1897
TH2 ROB: 4 LSQ: 2 IQ: 0, IPC: 0.0025
TH3 ROB: 4 LSQ: 3 IQ: 0, IPC: 0.0030
EPOCH ENDS
EPOCH STARTS
TH0 ROB: 4 LSQ: 4 IQ: 0 IPC: 0.0024
TH1 ROB: 105 LSQ: 86 IQ: 96, IPC: 2.1899
TH2 ROB: 4 LSQ: 2 IQ: 0, IPC: 0.0024
TH3 ROB: 4 LSQ: 3 IQ: 0, IPC: 0.0029
EPOCH ENDS
EPOCH STARTS
TH0 ROB: 4 LSQ: 4 IQ: 0 IPC: 0.0023
TH1 ROB: 105 LSQ: 87 IQ: 96, IPC: 2.1901
TH2 ROB: 4 LSQ: 2 IQ: 0, IPC: 0.0023
TH3 ROB: 4 LSQ: 3 IQ: 0, IPC: 0.0028
EPOCH ENDS
EPOCH STARTS
TH0 ROB: 4 LSQ: 4 IQ: 0 IPC: 0.0023
TH1 ROB: 105 LSQ: 87 IQ: 96, IPC: 2.1903
TH2 ROB: 4 LSQ: 2 IQ: 0, IPC: 0.0022
TH3 ROB: 4 LSQ: 3 IQ: 0, IPC: 0.0027
EPOCH ENDS
EPOCH STARTS
TH0 ROB: 4 LSQ: 4 IQ: 0 IPC: 0.0022
TH1 ROB: 106 LSQ: 87 IQ: 96, IPC: 2.1905
TH2 ROB: 4 LSQ: 2 IQ: 0, IPC: 0.0022
TH3 ROB: 4 LSQ: 3 IQ: 0, IPC: 0.0026
EPOCH ENDS
EPOCH STARTS
TH0 ROB: 4 LSQ: 4 IQ: 0 IPC: 0.0021
TH1 ROB: 104 LSQ: 85 IQ: 96, IPC: 2.1907
TH2 ROB: 4 LSQ: 2 IQ: 0, IPC: 0.0021
TH3 ROB: 4 LSQ: 3 IQ: 0, IPC: 0.0025
EPOCH ENDS
EPOCH STARTS
TH0 ROB: 4 LSQ: 4 IQ: 0 IPC: 0.0021
TH1 ROB: 104 LSQ: 85 IQ: 96, IPC: 2.1908
TH2 ROB: 4 LSQ: 2 IQ: 0, IPC: 0.0020
TH3 ROB: 4 LSQ: 3 IQ: 0, IPC: 0.0025
EPOCH ENDS
EPOCH STARTS
TH0 ROB: 4 LSQ: 4 IQ: 0 IPC: 0.0020
TH1 ROB: 105 LSQ: 87 IQ: 96, IPC: 2.1910
TH2 ROB: 4 LSQ: 2 IQ: 0, IPC: 0.0020
TH3 ROB: 4 LSQ: 3 IQ: 0, IPC: 0.0024
EPOCH ENDS
EPOCH STARTS
TH0 ROB: 4 LSQ: 4 IQ: 0 IPC: 0.0020
TH1 ROB: 106 LSQ: 87 IQ: 96, IPC: 2.1911
TH2 ROB: 4 LSQ: 2 IQ: 0, IPC: 0.0019
TH3 ROB: 4 LSQ: 3 IQ: 0, IPC: 0.0023
EPOCH ENDS
EPOCH STARTS
TH0 ROB: 4 LSQ: 4 IQ: 0 IPC: 0.0019
TH1 ROB: 106 LSQ: 87 IQ: 96, IPC: 2.1912
TH2 ROB: 4 LSQ: 2 IQ: 0, IPC: 0.0019
TH3 ROB: 4 LSQ: 3 IQ: 0, IPC: 0.0023
EPOCH ENDS
EPOCH STARTS
TH0 ROB: 4 LSQ: 4 IQ: 0 IPC: 0.0019
TH1 ROB: 106 LSQ: 87 IQ: 96, IPC: 2.1914
TH2 ROB: 4 LSQ: 2 IQ: 0, IPC: 0.0018
TH3 ROB: 4 LSQ: 3 IQ: 0, IPC: 0.0022
EPOCH ENDS
EPOCH STARTS
TH0 ROB: 4 LSQ: 4 IQ: 0 IPC: 0.0018
TH1 ROB: 104 LSQ: 86 IQ: 96, IPC: 2.1915
TH2 ROB: 4 LSQ: 2 IQ: 0, IPC: 0.0018
TH3 ROB: 4 LSQ: 3 IQ: 0, IPC: 0.0021
EPOCH ENDS
EPOCH STARTS
TH0 ROB: 4 LSQ: 4 IQ: 0 IPC: 0.0018
TH1 ROB: 104 LSQ: 87 IQ: 96, IPC: 2.1916
TH2 ROB: 4 LSQ: 2 IQ: 0, IPC: 0.0017
TH3 ROB: 4 LSQ: 3 IQ: 0, IPC: 0.0021
EPOCH ENDS
EPOCH STARTS
TH0 ROB: 4 LSQ: 4 IQ: 0 IPC: 0.0017
TH1 ROB: 105 LSQ: 86 IQ: 96, IPC: 2.1917
TH2 ROB: 4 LSQ: 2 IQ: 0, IPC: 0.0017
TH3 ROB: 4 LSQ: 3 IQ: 0, IPC: 0.0020
EPOCH ENDS
EPOCH STARTS
TH0 ROB: 4 LSQ: 4 IQ: 0 IPC: 0.0017
TH1 ROB: 105 LSQ: 86 IQ: 96, IPC: 2.1918
TH2 ROB: 4 LSQ: 2 IQ: 0, IPC: 0.0017
TH3 ROB: 4 LSQ: 3 IQ: 0, IPC: 0.0020
EPOCH ENDS
EPOCH STARTS
TH0 ROB: 4 LSQ: 4 IQ: 0 IPC: 0.0016
TH1 ROB: 106 LSQ: 87 IQ: 96, IPC: 2.1919
TH2 ROB: 4 LSQ: 2 IQ: 0, IPC: 0.0016
TH3 ROB: 4 LSQ: 3 IQ: 0, IPC: 0.0020
EPOCH ENDS
EPOCH STARTS
TH0 ROB: 4 LSQ: 4 IQ: 0 IPC: 0.0016
TH1 ROB: 105 LSQ: 87 IQ: 96, IPC: 2.1920
TH2 ROB: 4 LSQ: 2 IQ: 0, IPC: 0.0016
TH3 ROB: 4 LSQ: 3 IQ: 0, IPC: 0.0019
EPOCH ENDS
EPOCH STARTS
TH0 ROB: 4 LSQ: 4 IQ: 0 IPC: 0.0016
TH1 ROB: 105 LSQ: 86 IQ: 96, IPC: 2.1921
TH2 ROB: 4 LSQ: 2 IQ: 0, IPC: 0.0016
TH3 ROB: 4 LSQ: 3 IQ: 0, IPC: 0.0019
EPOCH ENDS
EPOCH STARTS
TH0 ROB: 4 LSQ: 4 IQ: 0 IPC: 0.0015
TH1 ROB: 105 LSQ: 86 IQ: 96, IPC: 2.1922
TH2 ROB: 4 LSQ: 2 IQ: 0, IPC: 0.0015
TH3 ROB: 4 LSQ: 3 IQ: 0, IPC: 0.0018
EPOCH ENDS
EPOCH STARTS
TH0 ROB: 4 LSQ: 4 IQ: 0 IPC: 0.0015
TH1 ROB: 105 LSQ: 86 IQ: 96, IPC: 2.1922
TH2 ROB: 4 LSQ: 2 IQ: 0, IPC: 0.0015
TH3 ROB: 4 LSQ: 3 IQ: 0, IPC: 0.0018
EPOCH ENDS
EPOCH STARTS
TH0 ROB: 4 LSQ: 4 IQ: 0 IPC: 0.0015
TH1 ROB: 105 LSQ: 86 IQ: 96, IPC: 2.1923
TH2 ROB: 4 LSQ: 2 IQ: 0, IPC: 0.0015
TH3 ROB: 4 LSQ: 3 IQ: 0, IPC: 0.0018
EPOCH ENDS
EPOCH STARTS
TH0 ROB: 4 LSQ: 4 IQ: 0 IPC: 0.0014
TH1 ROB: 105 LSQ: 87 IQ: 96, IPC: 2.1924
TH2 ROB: 4 LSQ: 2 IQ: 0, IPC: 0.0014
TH3 ROB: 4 LSQ: 3 IQ: 0, IPC: 0.0017
EPOCH ENDS
EPOCH STARTS
TH0 ROB: 4 LSQ: 4 IQ: 0 IPC: 0.0014
TH1 ROB: 105 LSQ: 86 IQ: 96, IPC: 2.1925
TH2 ROB: 4 LSQ: 2 IQ: 0, IPC: 0.0014
TH3 ROB: 4 LSQ: 3 IQ: 0, IPC: 0.0017
EPOCH ENDS
EPOCH STARTS
TH0 ROB: 4 LSQ: 4 IQ: 0 IPC: 0.0014
TH1 ROB: 105 LSQ: 86 IQ: 96, IPC: 2.1925
TH2 ROB: 4 LSQ: 2 IQ: 0, IPC: 0.0014
TH3 ROB: 4 LSQ: 3 IQ: 0, IPC: 0.0017
EPOCH ENDS
EPOCH STARTS
TH0 ROB: 4 LSQ: 4 IQ: 0 IPC: 0.0014
TH1 ROB: 105 LSQ: 86 IQ: 96, IPC: 2.1926
TH2 ROB: 4 LSQ: 2 IQ: 0, IPC: 0.0014
TH3 ROB: 4 LSQ: 3 IQ: 0, IPC: 0.0016
EPOCH ENDS
EPOCH STARTS
TH0 ROB: 4 LSQ: 4 IQ: 0 IPC: 0.0013
TH1 ROB: 105 LSQ: 87 IQ: 96, IPC: 2.1927
TH2 ROB: 4 LSQ: 2 IQ: 0, IPC: 0.0013
TH3 ROB: 4 LSQ: 3 IQ: 0, IPC: 0.0016
EPOCH ENDS
EPOCH STARTS
TH0 ROB: 4 LSQ: 4 IQ: 0 IPC: 0.0013
TH1 ROB: 105 LSQ: 88 IQ: 96, IPC: 2.1927
TH2 ROB: 4 LSQ: 2 IQ: 0, IPC: 0.0013
TH3 ROB: 4 LSQ: 3 IQ: 0, IPC: 0.0016
EPOCH ENDS
EPOCH STARTS
TH0 ROB: 4 LSQ: 4 IQ: 0 IPC: 0.0013
TH1 ROB: 104 LSQ: 85 IQ: 96, IPC: 2.1928
TH2 ROB: 4 LSQ: 2 IQ: 0, IPC: 0.0013
TH3 ROB: 4 LSQ: 3 IQ: 0, IPC: 0.0015
EPOCH ENDS
EPOCH STARTS
TH0 ROB: 4 LSQ: 4 IQ: 0 IPC: 0.0013
TH1 ROB: 104 LSQ: 85 IQ: 96, IPC: 2.1928
TH2 ROB: 4 LSQ: 2 IQ: 0, IPC: 0.0013
TH3 ROB: 4 LSQ: 3 IQ: 0, IPC: 0.0015
EPOCH ENDS
EPOCH STARTS
TH0 ROB: 4 LSQ: 4 IQ: 0 IPC: 0.0012
TH1 ROB: 105 LSQ: 86 IQ: 96, IPC: 2.1929
TH2 ROB: 4 LSQ: 2 IQ: 0, IPC: 0.0012
TH3 ROB: 4 LSQ: 3 IQ: 0, IPC: 0.0015
EPOCH ENDS
EPOCH STARTS
TH0 ROB: 4 LSQ: 4 IQ: 0 IPC: 0.0012
TH1 ROB: 105 LSQ: 87 IQ: 96, IPC: 2.1930
TH2 ROB: 4 LSQ: 2 IQ: 0, IPC: 0.0012
TH3 ROB: 4 LSQ: 3 IQ: 0, IPC: 0.0015
EPOCH ENDS
EPOCH STARTS
TH0 ROB: 4 LSQ: 4 IQ: 0 IPC: 0.0012
TH1 ROB: 106 LSQ: 87 IQ: 96, IPC: 2.1930
TH2 ROB: 4 LSQ: 2 IQ: 0, IPC: 0.0012
TH3 ROB: 4 LSQ: 3 IQ: 0, IPC: 0.0014
EPOCH ENDS
EPOCH STARTS
TH0 ROB: 4 LSQ: 4 IQ: 0 IPC: 0.0012
TH1 ROB: 104 LSQ: 85 IQ: 96, IPC: 2.1931
TH2 ROB: 4 LSQ: 2 IQ: 0, IPC: 0.0012
TH3 ROB: 4 LSQ: 3 IQ: 0, IPC: 0.0014
EPOCH ENDS
EPOCH STARTS
TH0 ROB: 4 LSQ: 4 IQ: 0 IPC: 0.0012
TH1 ROB: 104 LSQ: 85 IQ: 96, IPC: 2.1931
TH2 ROB: 4 LSQ: 2 IQ: 0, IPC: 0.0012
TH3 ROB: 4 LSQ: 3 IQ: 0, IPC: 0.0014
EPOCH ENDS
EPOCH STARTS
TH0 ROB: 4 LSQ: 4 IQ: 0 IPC: 0.0011
TH1 ROB: 104 LSQ: 85 IQ: 96, IPC: 2.1932
TH2 ROB: 4 LSQ: 2 IQ: 0, IPC: 0.0011
TH3 ROB: 4 LSQ: 3 IQ: 0, IPC: 0.0014
EPOCH ENDS
EPOCH STARTS
TH0 ROB: 4 LSQ: 4 IQ: 0 IPC: 0.0011
TH1 ROB: 105 LSQ: 87 IQ: 96, IPC: 2.1932
TH2 ROB: 4 LSQ: 2 IQ: 0, IPC: 0.0011
TH3 ROB: 4 LSQ: 3 IQ: 0, IPC: 0.0013
EPOCH ENDS
EPOCH STARTS
TH0 ROB: 4 LSQ: 4 IQ: 0 IPC: 0.0011
TH1 ROB: 105 LSQ: 86 IQ: 96, IPC: 2.1932
TH2 ROB: 4 LSQ: 2 IQ: 0, IPC: 0.0011
TH3 ROB: 4 LSQ: 3 IQ: 0, IPC: 0.0013
EPOCH ENDS
EPOCH STARTS
TH0 ROB: 4 LSQ: 4 IQ: 0 IPC: 0.0011
TH1 ROB: 104 LSQ: 85 IQ: 96, IPC: 2.1933
TH2 ROB: 4 LSQ: 2 IQ: 0, IPC: 0.0011
TH3 ROB: 4 LSQ: 3 IQ: 0, IPC: 0.0013
EPOCH ENDS
EPOCH STARTS
TH0 ROB: 4 LSQ: 4 IQ: 0 IPC: 0.0011
TH1 ROB: 104 LSQ: 85 IQ: 96, IPC: 2.1933
TH2 ROB: 4 LSQ: 2 IQ: 0, IPC: 0.0011
TH3 ROB: 4 LSQ: 3 IQ: 0, IPC: 0.0013
EPOCH ENDS
EPOCH STARTS
TH0 ROB: 4 LSQ: 4 IQ: 0 IPC: 0.0011
TH1 ROB: 104 LSQ: 87 IQ: 96, IPC: 2.1934
TH2 ROB: 4 LSQ: 2 IQ: 0, IPC: 0.0011
TH3 ROB: 4 LSQ: 3 IQ: 0, IPC: 0.0013
EPOCH ENDS
EPOCH STARTS
TH0 ROB: 4 LSQ: 4 IQ: 0 IPC: 0.0010
TH1 ROB: 105 LSQ: 87 IQ: 96, IPC: 2.1934
TH2 ROB: 4 LSQ: 2 IQ: 0, IPC: 0.0010
TH3 ROB: 4 LSQ: 3 IQ: 0, IPC: 0.0012
EPOCH ENDS
EPOCH STARTS
TH0 ROB: 4 LSQ: 4 IQ: 0 IPC: 0.0010
TH1 ROB: 105 LSQ: 85 IQ: 96, IPC: 2.1934
TH2 ROB: 4 LSQ: 2 IQ: 0, IPC: 0.0010
TH3 ROB: 4 LSQ: 3 IQ: 0, IPC: 0.0012
EPOCH ENDS
EPOCH STARTS
TH0 ROB: 4 LSQ: 4 IQ: 0 IPC: 0.0010
TH1 ROB: 104 LSQ: 85 IQ: 96, IPC: 2.1935
TH2 ROB: 4 LSQ: 2 IQ: 0, IPC: 0.0010
TH3 ROB: 4 LSQ: 3 IQ: 0, IPC: 0.0012
EPOCH ENDS
EPOCH STARTS
TH0 ROB: 4 LSQ: 4 IQ: 0 IPC: 0.0010
TH1 ROB: 104 LSQ: 85 IQ: 96, IPC: 2.1935
TH2 ROB: 4 LSQ: 2 IQ: 0, IPC: 0.0010
TH3 ROB: 4 LSQ: 3 IQ: 0, IPC: 0.0012
EPOCH ENDS
EPOCH STARTS
TH0 ROB: 4 LSQ: 4 IQ: 0 IPC: 0.0010
TH1 ROB: 104 LSQ: 86 IQ: 96, IPC: 2.1936
TH2 ROB: 4 LSQ: 2 IQ: 0, IPC: 0.0010
TH3 ROB: 4 LSQ: 3 IQ: 0, IPC: 0.0012
EPOCH ENDS
EPOCH STARTS
TH0 ROB: 4 LSQ: 4 IQ: 0 IPC: 0.0010
TH1 ROB: 107 LSQ: 88 IQ: 96, IPC: 2.1936
TH2 ROB: 4 LSQ: 2 IQ: 0, IPC: 0.0010
TH3 ROB: 4 LSQ: 3 IQ: 0, IPC: 0.0012
EPOCH ENDS
EPOCH STARTS
TH0 ROB: 4 LSQ: 4 IQ: 0 IPC: 0.0010
TH1 ROB: 105 LSQ: 86 IQ: 96, IPC: 2.1936
TH2 ROB: 4 LSQ: 2 IQ: 0, IPC: 0.0010
TH3 ROB: 4 LSQ: 3 IQ: 0, IPC: 0.0011
EPOCH ENDS
EPOCH STARTS
TH0 ROB: 4 LSQ: 4 IQ: 0 IPC: 0.0010
TH1 ROB: 105 LSQ: 85 IQ: 96, IPC: 2.1937
TH2 ROB: 4 LSQ: 2 IQ: 0, IPC: 0.0009
TH3 ROB: 4 LSQ: 3 IQ: 0, IPC: 0.0011
EPOCH ENDS
EPOCH STARTS
TH0 ROB: 4 LSQ: 4 IQ: 0 IPC: 0.0009
TH1 ROB: 104 LSQ: 85 IQ: 96, IPC: 2.1937
TH2 ROB: 4 LSQ: 2 IQ: 0, IPC: 0.0009
TH3 ROB: 4 LSQ: 3 IQ: 0, IPC: 0.0011
EPOCH ENDS
EPOCH STARTS
TH0 ROB: 4 LSQ: 4 IQ: 0 IPC: 0.0009
TH1 ROB: 105 LSQ: 87 IQ: 96, IPC: 2.1937
TH2 ROB: 4 LSQ: 2 IQ: 0, IPC: 0.0009
TH3 ROB: 4 LSQ: 3 IQ: 0, IPC: 0.0011
EPOCH ENDS
EPOCH STARTS
TH0 ROB: 4 LSQ: 4 IQ: 0 IPC: 0.0009
TH1 ROB: 105 LSQ: 86 IQ: 96, IPC: 2.1937
TH2 ROB: 4 LSQ: 2 IQ: 0, IPC: 0.0009
TH3 ROB: 4 LSQ: 3 IQ: 0, IPC: 0.0011
EPOCH ENDS
EPOCH STARTS
TH0 ROB: 4 LSQ: 4 IQ: 0 IPC: 0.0009
TH1 ROB: 104 LSQ: 85 IQ: 96, IPC: 2.1938
TH2 ROB: 4 LSQ: 2 IQ: 0, IPC: 0.0009
TH3 ROB: 4 LSQ: 3 IQ: 0, IPC: 0.0011
EPOCH ENDS
EPOCH STARTS
TH0 ROB: 4 LSQ: 4 IQ: 0 IPC: 0.0009
TH1 ROB: 105 LSQ: 86 IQ: 96, IPC: 2.1938
TH2 ROB: 4 LSQ: 2 IQ: 0, IPC: 0.0009
TH3 ROB: 4 LSQ: 3 IQ: 0, IPC: 0.0011
EPOCH ENDS
EPOCH STARTS
TH0 ROB: 4 LSQ: 4 IQ: 0 IPC: 0.0009
TH1 ROB: 105 LSQ: 87 IQ: 96, IPC: 2.1938
TH2 ROB: 4 LSQ: 2 IQ: 0, IPC: 0.0009
TH3 ROB: 4 LSQ: 3 IQ: 0, IPC: 0.0010
EPOCH ENDS
EPOCH STARTS
TH0 ROB: 4 LSQ: 4 IQ: 0 IPC: 0.0009
TH1 ROB: 105 LSQ: 87 IQ: 96, IPC: 2.1939
TH2 ROB: 4 LSQ: 2 IQ: 0, IPC: 0.0009
TH3 ROB: 4 LSQ: 3 IQ: 0, IPC: 0.0010
EPOCH ENDS
EPOCH STARTS
TH0 ROB: 4 LSQ: 4 IQ: 0 IPC: 0.0009
TH1 ROB: 106 LSQ: 87 IQ: 96, IPC: 2.1939
TH2 ROB: 4 LSQ: 2 IQ: 0, IPC: 0.0009
TH3 ROB: 4 LSQ: 3 IQ: 0, IPC: 0.0010
EPOCH ENDS
EPOCH STARTS
TH0 ROB: 4 LSQ: 4 IQ: 0 IPC: 0.0009
TH1 ROB: 104 LSQ: 85 IQ: 96, IPC: 2.1939
TH2 ROB: 4 LSQ: 2 IQ: 0, IPC: 0.0008
TH3 ROB: 4 LSQ: 3 IQ: 0, IPC: 0.0010
EPOCH ENDS
EPOCH STARTS
TH0 ROB: 30 LSQ: 19 IQ: 28 IPC: 0.0043
TH1 ROB: 38 LSQ: 16 IQ: 25, IPC: 2.1813
TH2 ROB: 26 LSQ: 9 IQ: 21, IPC: 0.0047
TH3 ROB: 25 LSQ: 15 IQ: 21, IPC: 0.0062
EPOCH ENDS
EPOCH STARTS
TH0 ROB: 17 LSQ: 8 IQ: 10 IPC: 0.0122
TH1 ROB: 24 LSQ: 7 IQ: 20, IPC: 2.1640
TH2 ROB: 34 LSQ: 14 IQ: 30, IPC: 0.0120
TH3 ROB: 42 LSQ: 26 IQ: 36, IPC: 0.0152
EPOCH ENDS
EPOCH STARTS
TH0 ROB: 35 LSQ: 12 IQ: 34 IPC: 0.0198
TH1 ROB: 27 LSQ: 8 IQ: 23, IPC: 2.1480
TH2 ROB: 31 LSQ: 10 IQ: 22, IPC: 0.0189
TH3 ROB: 21 LSQ: 13 IQ: 17, IPC: 0.0236
EPOCH ENDS
EPOCH STARTS
TH0 ROB: 40 LSQ: 6 IQ: 40 IPC: 0.0270
TH1 ROB: 32 LSQ: 10 IQ: 27, IPC: 2.1324
TH2 ROB: 27 LSQ: 11 IQ: 23, IPC: 0.0257
TH3 ROB: 15 LSQ: 9 IQ: 6, IPC: 0.0320
EPOCH ENDS
EPOCH STARTS
TH0 ROB: 19 LSQ: 3 IQ: 9 IPC: 0.0344
TH1 ROB: 18 LSQ: 6 IQ: 12, IPC: 2.1173
TH2 ROB: 44 LSQ: 16 IQ: 40, IPC: 0.0316
TH3 ROB: 37 LSQ: 23 IQ: 35, IPC: 0.0403
EPOCH ENDS
EPOCH STARTS
TH0 ROB: 24 LSQ: 14 IQ: 16 IPC: 0.0416
TH1 ROB: 33 LSQ: 10 IQ: 29, IPC: 2.1022
TH2 ROB: 30 LSQ: 13 IQ: 24, IPC: 0.0382
TH3 ROB: 31 LSQ: 18 IQ: 27, IPC: 0.0482
EPOCH ENDS
EPOCH STARTS
TH0 ROB: 32 LSQ: 20 IQ: 28 IPC: 0.0484
TH1 ROB: 31 LSQ: 10 IQ: 19, IPC: 2.0876
TH2 ROB: 28 LSQ: 12 IQ: 24, IPC: 0.0446
TH3 ROB: 31 LSQ: 19 IQ: 25, IPC: 0.0559
EPOCH ENDS
EPOCH STARTS
TH0 ROB: 20 LSQ: 5 IQ: 15 IPC: 0.0553
TH1 ROB: 34 LSQ: 11 IQ: 28, IPC: 2.0732
TH2 ROB: 24 LSQ: 5 IQ: 18, IPC: 0.0509
TH3 ROB: 38 LSQ: 23 IQ: 35, IPC: 0.0633
EPOCH ENDS
EPOCH STARTS
TH0 ROB: 30 LSQ: 12 IQ: 21 IPC: 0.0620
TH1 ROB: 33 LSQ: 10 IQ: 27, IPC: 2.0590
TH2 ROB: 25 LSQ: 12 IQ: 15, IPC: 0.0570
TH3 ROB: 34 LSQ: 21 IQ: 33, IPC: 0.0708
EPOCH ENDS
EPOCH STARTS
TH0 ROB: 40 LSQ: 6 IQ: 36 IPC: 0.0685
TH1 ROB: 18 LSQ: 5 IQ: 14, IPC: 2.0455
TH2 ROB: 0 LSQ: 0 IQ: 0, IPC: 0.0629
TH3 ROB: 34 LSQ: 20 IQ: 25, IPC: 0.0780
EPOCH ENDS
EPOCH STARTS
TH0 ROB: 25 LSQ: 7 IQ: 21 IPC: 0.0748
TH1 ROB: 34 LSQ: 10 IQ: 24, IPC: 2.0322
TH2 ROB: 29 LSQ: 9 IQ: 23, IPC: 0.0686
TH3 ROB: 33 LSQ: 19 IQ: 28, IPC: 0.0852
EPOCH ENDS
EPOCH STARTS
TH0 ROB: 13 LSQ: 12 IQ: 4 IPC: 0.0811
TH1 ROB: 66 LSQ: 20 IQ: 62, IPC: 2.0189
TH2 ROB: 26 LSQ: 9 IQ: 26, IPC: 0.0744
TH3 ROB: 10 LSQ: 6 IQ: 4, IPC: 0.0922
EPOCH ENDS
EPOCH STARTS
TH0 ROB: 17 LSQ: 2 IQ: 13 IPC: 0.0872
TH1 ROB: 16 LSQ: 3 IQ: 12, IPC: 2.0060
TH2 ROB: 51 LSQ: 16 IQ: 43, IPC: 0.0801
TH3 ROB: 32 LSQ: 20 IQ: 28, IPC: 0.0989
EPOCH ENDS
EPOCH STARTS
TH0 ROB: 34 LSQ: 13 IQ: 30 IPC: 0.0933
TH1 ROB: 29 LSQ: 9 IQ: 20, IPC: 1.9933
TH2 ROB: 32 LSQ: 14 IQ: 28, IPC: 0.0857
TH3 ROB: 23 LSQ: 15 IQ: 18, IPC: 0.1055
EPOCH ENDS
EPOCH STARTS
TH0 ROB: 26 LSQ: 9 IQ: 22 IPC: 0.0993
TH1 ROB: 33 LSQ: 10 IQ: 21, IPC: 1.9808
TH2 ROB: 35 LSQ: 6 IQ: 33, IPC: 0.0911
TH3 ROB: 25 LSQ: 15 IQ: 20, IPC: 0.1120
EPOCH ENDS
EPOCH STARTS
TH0 ROB: 23 LSQ: 4 IQ: 19 IPC: 0.1049
TH1 ROB: 4 LSQ: 2 IQ: 0, IPC: 1.9689
TH2 ROB: 25 LSQ: 10 IQ: 19, IPC: 0.0964
TH3 ROB: 66 LSQ: 40 IQ: 58, IPC: 0.1182
EPOCH ENDS
EPOCH STARTS
TH0 ROB: 32 LSQ: 18 IQ: 26 IPC: 0.1105
TH1 ROB: 42 LSQ: 14 IQ: 40, IPC: 1.9569
TH2 ROB: 19 LSQ: 9 IQ: 13, IPC: 0.1016
TH3 ROB: 25 LSQ: 15 IQ: 17, IPC: 0.1247
EPOCH ENDS
EPOCH STARTS
TH0 ROB: 21 LSQ: 7 IQ: 9 IPC: 0.1160
TH1 ROB: 13 LSQ: 5 IQ: 6, IPC: 1.9451
TH2 ROB: 31 LSQ: 14 IQ: 31, IPC: 0.1067
TH3 ROB: 54 LSQ: 32 IQ: 50, IPC: 0.1309
EPOCH ENDS
EPOCH STARTS
TH0 ROB: 43 LSQ: 8 IQ: 33 IPC: 0.1214
TH1 ROB: 37 LSQ: 11 IQ: 32, IPC: 1.9337
TH2 ROB: 29 LSQ: 10 IQ: 22, IPC: 0.1115
TH3 ROB: 13 LSQ: 8 IQ: 9, IPC: 0.1370
EPOCH ENDS
EPOCH STARTS
TH0 ROB: 40 LSQ: 16 IQ: 34 IPC: 0.1269
TH1 ROB: 24 LSQ: 9 IQ: 20, IPC: 1.9224
TH2 ROB: 24 LSQ: 11 IQ: 20, IPC: 0.1163
TH3 ROB: 30 LSQ: 18 IQ: 22, IPC: 0.1429
EPOCH ENDS
EPOCH STARTS
TH0 ROB: 40 LSQ: 15 IQ: 36 IPC: 0.1322
TH1 ROB: 38 LSQ: 11 IQ: 37, IPC: 1.9116
TH2 ROB: 21 LSQ: 8 IQ: 13, IPC: 0.1209
TH3 ROB: 14 LSQ: 9 IQ: 10, IPC: 0.1487
EPOCH ENDS
EPOCH STARTS
TH0 ROB: 17 LSQ: 9 IQ: 10 IPC: 0.1375
TH1 ROB: 41 LSQ: 13 IQ: 38, IPC: 1.9008
TH2 ROB: 19 LSQ: 2 IQ: 14, IPC: 0.1254
TH3 ROB: 39 LSQ: 24 IQ: 34, IPC: 0.1544
EPOCH ENDS
EPOCH STARTS
TH0 ROB: 38 LSQ: 7 IQ: 31 IPC: 0.1425
TH1 ROB: 25 LSQ: 8 IQ: 20, IPC: 1.8903
TH2 ROB: 19 LSQ: 9 IQ: 3, IPC: 0.1300
TH3 ROB: 46 LSQ: 28 IQ: 42, IPC: 0.1599
EPOCH ENDS
EPOCH STARTS
TH0 ROB: 31 LSQ: 5 IQ: 27 IPC: 0.1474
TH1 ROB: 33 LSQ: 10 IQ: 21, IPC: 1.8799
TH2 ROB: 33 LSQ: 9 IQ: 29, IPC: 0.1347
TH3 ROB: 24 LSQ: 15 IQ: 19, IPC: 0.1654
EPOCH ENDS
EPOCH STARTS
TH0 ROB: 36 LSQ: 7 IQ: 31 IPC: 0.1522
TH1 ROB: 26 LSQ: 9 IQ: 21, IPC: 1.8696
TH2 ROB: 36 LSQ: 13 IQ: 31, IPC: 0.1392
TH3 ROB: 19 LSQ: 11 IQ: 13, IPC: 0.1708
EPOCH ENDS
EPOCH STARTS
TH0 ROB: 34 LSQ: 8 IQ: 34 IPC: 0.1570
TH1 ROB: 23 LSQ: 9 IQ: 17, IPC: 1.8595
TH2 ROB: 20 LSQ: 5 IQ: 16, IPC: 0.1434
TH3 ROB: 31 LSQ: 19 IQ: 27, IPC: 0.1762
EPOCH ENDS
EPOCH STARTS
TH0 ROB: 4 LSQ: 2 IQ: 0 IPC: 0.1568
TH1 ROB: 4 LSQ: 2 IQ: 0, IPC: 1.8444
TH2 ROB: 4 LSQ: 1 IQ: 0, IPC: 0.1433
TH3 ROB: 106 LSQ: 64 IQ: 96, IPC: 0.1938
EPOCH ENDS
EPOCH STARTS
TH0 ROB: 4 LSQ: 2 IQ: 0 IPC: 0.1554
TH1 ROB: 4 LSQ: 2 IQ: 0, IPC: 1.8280
TH2 ROB: 4 LSQ: 1 IQ: 0, IPC: 0.1420
TH3 ROB: 106 LSQ: 64 IQ: 96, IPC: 0.2142
EPOCH ENDS
EPOCH STARTS
TH0 ROB: 4 LSQ: 2 IQ: 0 IPC: 0.1540
TH1 ROB: 4 LSQ: 2 IQ: 0, IPC: 1.8120
TH2 ROB: 4 LSQ: 1 IQ: 0, IPC: 0.1407
TH3 ROB: 106 LSQ: 64 IQ: 96, IPC: 0.2343
EPOCH ENDS
EPOCH STARTS
TH0 ROB: 4 LSQ: 2 IQ: 0 IPC: 0.1527
TH1 ROB: 4 LSQ: 2 IQ: 0, IPC: 1.7963
TH2 ROB: 4 LSQ: 1 IQ: 0, IPC: 0.1395
TH3 ROB: 106 LSQ: 64 IQ: 96, IPC: 0.2540
EPOCH ENDS
EPOCH STARTS
TH0 ROB: 4 LSQ: 2 IQ: 0 IPC: 0.1514
TH1 ROB: 4 LSQ: 2 IQ: 0, IPC: 1.7808
TH2 ROB: 4 LSQ: 1 IQ: 0, IPC: 0.1383
TH3 ROB: 106 LSQ: 64 IQ: 96, IPC: 0.2733
EPOCH ENDS
EPOCH STARTS
TH0 ROB: 4 LSQ: 2 IQ: 0 IPC: 0.1501
TH1 ROB: 4 LSQ: 2 IQ: 0, IPC: 1.7655
TH2 ROB: 4 LSQ: 1 IQ: 0, IPC: 0.1371
TH3 ROB: 106 LSQ: 64 IQ: 96, IPC: 0.2924
EPOCH ENDS
EPOCH STARTS
TH0 ROB: 4 LSQ: 2 IQ: 0 IPC: 0.1488
TH1 ROB: 4 LSQ: 2 IQ: 0, IPC: 1.7506
TH2 ROB: 4 LSQ: 1 IQ: 0, IPC: 0.1360
TH3 ROB: 106 LSQ: 64 IQ: 96, IPC: 0.3111
EPOCH ENDS
EPOCH STARTS
TH0 ROB: 4 LSQ: 2 IQ: 0 IPC: 0.1475
TH1 ROB: 4 LSQ: 2 IQ: 0, IPC: 1.7359
TH2 ROB: 4 LSQ: 1 IQ: 0, IPC: 0.1348
TH3 ROB: 106 LSQ: 64 IQ: 96, IPC: 0.3295
EPOCH ENDS
EPOCH STARTS
TH0 ROB: 4 LSQ: 2 IQ: 0 IPC: 0.1463
TH1 ROB: 4 LSQ: 2 IQ: 0, IPC: 1.7214
TH2 ROB: 4 LSQ: 1 IQ: 0, IPC: 0.1337
TH3 ROB: 106 LSQ: 64 IQ: 96, IPC: 0.3476
EPOCH ENDS
EPOCH STARTS
TH0 ROB: 4 LSQ: 2 IQ: 0 IPC: 0.1451
TH1 ROB: 4 LSQ: 2 IQ: 0, IPC: 1.7072
TH2 ROB: 4 LSQ: 1 IQ: 0, IPC: 0.1326
TH3 ROB: 106 LSQ: 64 IQ: 96, IPC: 0.3653
EPOCH ENDS
EPOCH STARTS
TH0 ROB: 4 LSQ: 2 IQ: 0 IPC: 0.1439
TH1 ROB: 4 LSQ: 2 IQ: 0, IPC: 1.6932
TH2 ROB: 4 LSQ: 1 IQ: 0, IPC: 0.1315
TH3 ROB: 106 LSQ: 64 IQ: 96, IPC: 0.3828
EPOCH ENDS
EPOCH STARTS
TH0 ROB: 4 LSQ: 2 IQ: 0 IPC: 0.1427
TH1 ROB: 4 LSQ: 2 IQ: 0, IPC: 1.6794
TH2 ROB: 4 LSQ: 1 IQ: 0, IPC: 0.1304
TH3 ROB: 106 LSQ: 64 IQ: 96, IPC: 0.4000
EPOCH ENDS
EPOCH STARTS
TH0 ROB: 4 LSQ: 2 IQ: 0 IPC: 0.1416
TH1 ROB: 4 LSQ: 2 IQ: 0, IPC: 1.6659
TH2 ROB: 4 LSQ: 1 IQ: 0, IPC: 0.1294
TH3 ROB: 106 LSQ: 64 IQ: 96, IPC: 0.4170
EPOCH ENDS
EPOCH STARTS
TH0 ROB: 4 LSQ: 2 IQ: 0 IPC: 0.1405
TH1 ROB: 4 LSQ: 2 IQ: 0, IPC: 1.6526
TH2 ROB: 4 LSQ: 1 IQ: 0, IPC: 0.1284
TH3 ROB: 106 LSQ: 64 IQ: 96, IPC: 0.4336
EPOCH ENDS
EPOCH STARTS
TH0 ROB: 4 LSQ: 2 IQ: 0 IPC: 0.1393
TH1 ROB: 4 LSQ: 2 IQ: 0, IPC: 1.6394
TH2 ROB: 4 LSQ: 1 IQ: 0, IPC: 0.1273
TH3 ROB: 106 LSQ: 64 IQ: 96, IPC: 0.4500
EPOCH ENDS
EPOCH STARTS
TH0 ROB: 4 LSQ: 2 IQ: 0 IPC: 0.1382
TH1 ROB: 4 LSQ: 2 IQ: 0, IPC: 1.6265
TH2 ROB: 4 LSQ: 1 IQ: 0, IPC: 0.1263
TH3 ROB: 106 LSQ: 64 IQ: 96, IPC: 0.4662
EPOCH ENDS
EPOCH STARTS
TH0 ROB: 4 LSQ: 2 IQ: 0 IPC: 0.1372
TH1 ROB: 4 LSQ: 2 IQ: 0, IPC: 1.6138
TH2 ROB: 4 LSQ: 1 IQ: 0, IPC: 0.1253
TH3 ROB: 106 LSQ: 64 IQ: 96, IPC: 0.4821
EPOCH ENDS
EPOCH STARTS
TH0 ROB: 4 LSQ: 2 IQ: 0 IPC: 0.1361
TH1 ROB: 4 LSQ: 2 IQ: 0, IPC: 1.6013
TH2 ROB: 4 LSQ: 1 IQ: 0, IPC: 0.1244
TH3 ROB: 106 LSQ: 64 IQ: 96, IPC: 0.4977
EPOCH ENDS
EPOCH STARTS
TH0 ROB: 4 LSQ: 2 IQ: 0 IPC: 0.1351
TH1 ROB: 4 LSQ: 2 IQ: 0, IPC: 1.5890
TH2 ROB: 4 LSQ: 1 IQ: 0, IPC: 0.1234
TH3 ROB: 106 LSQ: 64 IQ: 96, IPC: 0.5131
EPOCH ENDS
EPOCH STARTS
TH0 ROB: 4 LSQ: 2 IQ: 0 IPC: 0.1340
TH1 ROB: 4 LSQ: 2 IQ: 0, IPC: 1.5769
TH2 ROB: 4 LSQ: 1 IQ: 0, IPC: 0.1225
TH3 ROB: 106 LSQ: 64 IQ: 96, IPC: 0.5283
EPOCH ENDS
EPOCH STARTS
TH0 ROB: 4 LSQ: 2 IQ: 0 IPC: 0.1330
TH1 ROB: 4 LSQ: 2 IQ: 0, IPC: 1.5649
TH2 ROB: 4 LSQ: 1 IQ: 0, IPC: 0.1216
TH3 ROB: 106 LSQ: 64 IQ: 96, IPC: 0.5432
EPOCH ENDS
EPOCH STARTS
TH0 ROB: 4 LSQ: 2 IQ: 0 IPC: 0.1320
TH1 ROB: 4 LSQ: 2 IQ: 0, IPC: 1.5532
TH2 ROB: 4 LSQ: 1 IQ: 0, IPC: 0.1206
TH3 ROB: 106 LSQ: 64 IQ: 96, IPC: 0.5579
EPOCH ENDS
EPOCH STARTS
TH0 ROB: 4 LSQ: 2 IQ: 0 IPC: 0.1310
TH1 ROB: 4 LSQ: 2 IQ: 0, IPC: 1.5416
TH2 ROB: 4 LSQ: 1 IQ: 0, IPC: 0.1197
TH3 ROB: 106 LSQ: 64 IQ: 96, IPC: 0.5724
EPOCH ENDS
EPOCH STARTS
TH0 ROB: 4 LSQ: 2 IQ: 0 IPC: 0.1301
TH1 ROB: 4 LSQ: 2 IQ: 0, IPC: 1.5301
TH2 ROB: 4 LSQ: 1 IQ: 0, IPC: 0.1188
TH3 ROB: 106 LSQ: 64 IQ: 96, IPC: 0.5867
EPOCH ENDS
EPOCH STARTS
TH0 ROB: 4 LSQ: 2 IQ: 0 IPC: 0.1291
TH1 ROB: 4 LSQ: 2 IQ: 0, IPC: 1.5189
TH2 ROB: 4 LSQ: 1 IQ: 0, IPC: 0.1180
TH3 ROB: 106 LSQ: 64 IQ: 96, IPC: 0.6008
EPOCH ENDS
EPOCH STARTS
TH0 ROB: 4 LSQ: 2 IQ: 0 IPC: 0.1282
TH1 ROB: 4 LSQ: 2 IQ: 0, IPC: 1.5078
TH2 ROB: 4 LSQ: 1 IQ: 0, IPC: 0.1171
TH3 ROB: 106 LSQ: 64 IQ: 96, IPC: 0.6146
EPOCH ENDS
EPOCH STARTS
TH0 ROB: 4 LSQ: 2 IQ: 0 IPC: 0.1272
TH1 ROB: 4 LSQ: 2 IQ: 0, IPC: 1.4969
TH2 ROB: 4 LSQ: 1 IQ: 0, IPC: 0.1163
TH3 ROB: 106 LSQ: 64 IQ: 96, IPC: 0.6283
EPOCH ENDS
EPOCH STARTS
TH0 ROB: 4 LSQ: 2 IQ: 0 IPC: 0.1263
TH1 ROB: 4 LSQ: 2 IQ: 0, IPC: 1.4861
TH2 ROB: 4 LSQ: 1 IQ: 0, IPC: 0.1154
TH3 ROB: 106 LSQ: 64 IQ: 96, IPC: 0.6418
EPOCH ENDS
EPOCH STARTS
TH0 ROB: 4 LSQ: 2 IQ: 0 IPC: 0.1254
TH1 ROB: 4 LSQ: 2 IQ: 0, IPC: 1.4755
TH2 ROB: 4 LSQ: 1 IQ: 0, IPC: 0.1146
TH3 ROB: 106 LSQ: 64 IQ: 96, IPC: 0.6550
EPOCH ENDS
EPOCH STARTS
TH0 ROB: 4 LSQ: 2 IQ: 0 IPC: 0.1245
TH1 ROB: 4 LSQ: 2 IQ: 0, IPC: 1.4650
TH2 ROB: 4 LSQ: 1 IQ: 0, IPC: 0.1138
TH3 ROB: 106 LSQ: 64 IQ: 96, IPC: 0.6681
EPOCH ENDS
EPOCH STARTS
TH0 ROB: 4 LSQ: 2 IQ: 0 IPC: 0.1236
TH1 ROB: 4 LSQ: 2 IQ: 0, IPC: 1.4547
TH2 ROB: 4 LSQ: 1 IQ: 0, IPC: 0.1130
TH3 ROB: 106 LSQ: 64 IQ: 96, IPC: 0.6810
EPOCH ENDS
EPOCH STARTS
TH0 ROB: 4 LSQ: 2 IQ: 0 IPC: 0.1228
TH1 ROB: 4 LSQ: 2 IQ: 0, IPC: 1.4445
TH2 ROB: 4 LSQ: 1 IQ: 0, IPC: 0.1122
TH3 ROB: 106 LSQ: 64 IQ: 96, IPC: 0.6937
EPOCH ENDS
EPOCH STARTS
TH0 ROB: 4 LSQ: 2 IQ: 0 IPC: 0.1219
TH1 ROB: 4 LSQ: 2 IQ: 0, IPC: 1.4345
TH2 ROB: 4 LSQ: 1 IQ: 0, IPC: 0.1114
TH3 ROB: 106 LSQ: 64 IQ: 96, IPC: 0.7063
EPOCH ENDS
EPOCH STARTS
TH0 ROB: 4 LSQ: 2 IQ: 0 IPC: 0.1211
TH1 ROB: 4 LSQ: 2 IQ: 0, IPC: 1.4246
TH2 ROB: 4 LSQ: 1 IQ: 0, IPC: 0.1107
TH3 ROB: 106 LSQ: 64 IQ: 96, IPC: 0.7187
EPOCH ENDS
EPOCH STARTS
TH0 ROB: 4 LSQ: 2 IQ: 0 IPC: 0.1203
TH1 ROB: 4 LSQ: 2 IQ: 0, IPC: 1.4149
TH2 ROB: 4 LSQ: 1 IQ: 0, IPC: 0.1099
TH3 ROB: 106 LSQ: 64 IQ: 96, IPC: 0.7309
EPOCH ENDS
EPOCH STARTS
TH0 ROB: 4 LSQ: 2 IQ: 0 IPC: 0.1194
TH1 ROB: 4 LSQ: 2 IQ: 0, IPC: 1.4052
TH2 ROB: 4 LSQ: 1 IQ: 0, IPC: 0.1091
TH3 ROB: 106 LSQ: 64 IQ: 96, IPC: 0.7429
EPOCH ENDS
EPOCH STARTS
TH0 ROB: 4 LSQ: 2 IQ: 0 IPC: 0.1186
TH1 ROB: 4 LSQ: 2 IQ: 0, IPC: 1.3957
TH2 ROB: 4 LSQ: 1 IQ: 0, IPC: 0.1084
TH3 ROB: 106 LSQ: 64 IQ: 96, IPC: 0.7548
EPOCH ENDS
EPOCH STARTS
TH0 ROB: 4 LSQ: 2 IQ: 0 IPC: 0.1178
TH1 ROB: 4 LSQ: 2 IQ: 0, IPC: 1.3864
TH2 ROB: 4 LSQ: 1 IQ: 0, IPC: 0.1077
TH3 ROB: 106 LSQ: 64 IQ: 96, IPC: 0.7665
EPOCH ENDS
EPOCH STARTS
TH0 ROB: 4 LSQ: 2 IQ: 0 IPC: 0.1170
TH1 ROB: 4 LSQ: 2 IQ: 0, IPC: 1.3771
TH2 ROB: 4 LSQ: 1 IQ: 0, IPC: 0.1070
TH3 ROB: 106 LSQ: 64 IQ: 96, IPC: 0.7780
EPOCH ENDS
EPOCH STARTS
TH0 ROB: 4 LSQ: 2 IQ: 0 IPC: 0.1163
TH1 ROB: 4 LSQ: 2 IQ: 0, IPC: 1.3680
TH2 ROB: 4 LSQ: 1 IQ: 0, IPC: 0.1063
TH3 ROB: 106 LSQ: 64 IQ: 96, IPC: 0.7894
EPOCH ENDS
EPOCH STARTS
TH0 ROB: 4 LSQ: 2 IQ: 0 IPC: 0.1155
TH1 ROB: 4 LSQ: 2 IQ: 0, IPC: 1.3590
TH2 ROB: 4 LSQ: 1 IQ: 0, IPC: 0.1056
TH3 ROB: 106 LSQ: 64 IQ: 96, IPC: 0.8007
EPOCH ENDS
EPOCH STARTS
TH0 ROB: 4 LSQ: 2 IQ: 0 IPC: 0.1148
TH1 ROB: 4 LSQ: 2 IQ: 0, IPC: 1.3501
TH2 ROB: 4 LSQ: 1 IQ: 0, IPC: 0.1049
TH3 ROB: 106 LSQ: 64 IQ: 96, IPC: 0.8118
EPOCH ENDS
EPOCH STARTS
TH0 ROB: 4 LSQ: 2 IQ: 0 IPC: 0.1140
TH1 ROB: 4 LSQ: 2 IQ: 0, IPC: 1.3414
TH2 ROB: 4 LSQ: 1 IQ: 0, IPC: 0.1042
TH3 ROB: 106 LSQ: 64 IQ: 96, IPC: 0.8228
EPOCH ENDS
EPOCH STARTS
TH0 ROB: 4 LSQ: 2 IQ: 0 IPC: 0.1133
TH1 ROB: 4 LSQ: 2 IQ: 0, IPC: 1.3327
TH2 ROB: 4 LSQ: 1 IQ: 0, IPC: 0.1035
TH3 ROB: 106 LSQ: 64 IQ: 96, IPC: 0.8336
EPOCH ENDS
EPOCH STARTS
TH0 ROB: 4 LSQ: 2 IQ: 0 IPC: 0.1125
TH1 ROB: 4 LSQ: 2 IQ: 0, IPC: 1.3242
TH2 ROB: 4 LSQ: 1 IQ: 0, IPC: 0.1029
TH3 ROB: 106 LSQ: 64 IQ: 96, IPC: 0.8443
EPOCH ENDS
EPOCH STARTS
TH0 ROB: 4 LSQ: 2 IQ: 0 IPC: 0.1118
TH1 ROB: 4 LSQ: 2 IQ: 0, IPC: 1.3157
TH2 ROB: 4 LSQ: 1 IQ: 0, IPC: 0.1022
TH3 ROB: 106 LSQ: 64 IQ: 96, IPC: 0.8548
EPOCH ENDS
EPOCH STARTS
TH0 ROB: 4 LSQ: 2 IQ: 0 IPC: 0.1111
TH1 ROB: 4 LSQ: 2 IQ: 0, IPC: 1.3074
TH2 ROB: 4 LSQ: 1 IQ: 0, IPC: 0.1015
TH3 ROB: 106 LSQ: 64 IQ: 96, IPC: 0.8652
EPOCH ENDS
EPOCH STARTS
TH0 ROB: 4 LSQ: 2 IQ: 0 IPC: 0.1104
TH1 ROB: 4 LSQ: 2 IQ: 0, IPC: 1.2992
TH2 ROB: 4 LSQ: 1 IQ: 0, IPC: 0.1009
TH3 ROB: 106 LSQ: 64 IQ: 96, IPC: 0.8755
EPOCH ENDS
EPOCH STARTS
TH0 ROB: 4 LSQ: 2 IQ: 0 IPC: 0.1097
TH1 ROB: 4 LSQ: 2 IQ: 0, IPC: 1.2911
TH2 ROB: 4 LSQ: 1 IQ: 0, IPC: 0.1003
TH3 ROB: 106 LSQ: 64 IQ: 96, IPC: 0.8857
EPOCH ENDS
EPOCH STARTS
TH0 ROB: 4 LSQ: 2 IQ: 0 IPC: 0.1090
TH1 ROB: 4 LSQ: 2 IQ: 0, IPC: 1.2830
TH2 ROB: 4 LSQ: 1 IQ: 0, IPC: 0.0997
TH3 ROB: 106 LSQ: 64 IQ: 96, IPC: 0.8957
EPOCH ENDS
EPOCH STARTS
TH0 ROB: 4 LSQ: 2 IQ: 0 IPC: 0.1084
TH1 ROB: 4 LSQ: 2 IQ: 0, IPC: 1.2751
TH2 ROB: 4 LSQ: 1 IQ: 0, IPC: 0.0990
TH3 ROB: 106 LSQ: 64 IQ: 96, IPC: 0.9056
EPOCH ENDS
EPOCH STARTS
TH0 ROB: 4 LSQ: 2 IQ: 0 IPC: 0.1077
TH1 ROB: 4 LSQ: 2 IQ: 0, IPC: 1.2673
TH2 ROB: 4 LSQ: 1 IQ: 0, IPC: 0.0984
TH3 ROB: 106 LSQ: 64 IQ: 96, IPC: 0.9154
EPOCH ENDS
EPOCH STARTS
TH0 ROB: 4 LSQ: 2 IQ: 0 IPC: 0.1071
TH1 ROB: 4 LSQ: 2 IQ: 0, IPC: 1.2596
TH2 ROB: 4 LSQ: 1 IQ: 0, IPC: 0.0978
TH3 ROB: 106 LSQ: 64 IQ: 96, IPC: 0.9250
EPOCH ENDS
EPOCH STARTS
TH0 ROB: 4 LSQ: 2 IQ: 0 IPC: 0.1064
TH1 ROB: 4 LSQ: 2 IQ: 0, IPC: 1.2519
TH2 ROB: 4 LSQ: 1 IQ: 0, IPC: 0.0972
TH3 ROB: 106 LSQ: 64 IQ: 96, IPC: 0.9346
EPOCH ENDS
EPOCH STARTS
TH0 ROB: 4 LSQ: 2 IQ: 0 IPC: 0.1058
TH1 ROB: 4 LSQ: 2 IQ: 0, IPC: 1.2444
TH2 ROB: 4 LSQ: 1 IQ: 0, IPC: 0.0967
TH3 ROB: 106 LSQ: 64 IQ: 96, IPC: 0.9440
EPOCH ENDS
EPOCH STARTS
TH0 ROB: 4 LSQ: 2 IQ: 0 IPC: 0.1051
TH1 ROB: 4 LSQ: 2 IQ: 0, IPC: 1.2369
TH2 ROB: 4 LSQ: 1 IQ: 0, IPC: 0.0961
TH3 ROB: 106 LSQ: 64 IQ: 96, IPC: 0.9533
EPOCH ENDS
EPOCH STARTS
TH0 ROB: 4 LSQ: 2 IQ: 0 IPC: 0.1045
TH1 ROB: 4 LSQ: 2 IQ: 0, IPC: 1.2296
TH2 ROB: 4 LSQ: 1 IQ: 0, IPC: 0.0955
TH3 ROB: 106 LSQ: 64 IQ: 96, IPC: 0.9625
EPOCH ENDS
EPOCH STARTS
TH0 ROB: 4 LSQ: 2 IQ: 0 IPC: 0.1039
TH1 ROB: 4 LSQ: 2 IQ: 0, IPC: 1.2223
TH2 ROB: 4 LSQ: 1 IQ: 0, IPC: 0.0949
TH3 ROB: 106 LSQ: 64 IQ: 96, IPC: 0.9716
EPOCH ENDS
EPOCH STARTS
TH0 ROB: 4 LSQ: 2 IQ: 0 IPC: 0.1033
TH1 ROB: 4 LSQ: 2 IQ: 0, IPC: 1.2151
TH2 ROB: 4 LSQ: 1 IQ: 0, IPC: 0.0944
TH3 ROB: 106 LSQ: 64 IQ: 96, IPC: 0.9806
EPOCH ENDS
EPOCH STARTS
TH0 ROB: 4 LSQ: 2 IQ: 0 IPC: 0.1027
TH1 ROB: 4 LSQ: 2 IQ: 0, IPC: 1.2080
TH2 ROB: 4 LSQ: 1 IQ: 0, IPC: 0.0938
TH3 ROB: 106 LSQ: 64 IQ: 96, IPC: 0.9895
EPOCH ENDS
EPOCH STARTS
TH0 ROB: 4 LSQ: 2 IQ: 0 IPC: 0.1021
TH1 ROB: 4 LSQ: 2 IQ: 0, IPC: 1.2010
TH2 ROB: 4 LSQ: 1 IQ: 0, IPC: 0.0933
TH3 ROB: 106 LSQ: 64 IQ: 96, IPC: 0.9983
EPOCH ENDS
EPOCH STARTS
TH0 ROB: 4 LSQ: 2 IQ: 0 IPC: 0.1015
TH1 ROB: 4 LSQ: 2 IQ: 0, IPC: 1.1940
TH2 ROB: 4 LSQ: 1 IQ: 0, IPC: 0.0927
TH3 ROB: 106 LSQ: 64 IQ: 96, IPC: 1.0070
EPOCH ENDS
EPOCH STARTS
TH0 ROB: 4 LSQ: 2 IQ: 0 IPC: 0.1009
TH1 ROB: 4 LSQ: 2 IQ: 0, IPC: 1.1872
TH2 ROB: 4 LSQ: 1 IQ: 0, IPC: 0.0922
TH3 ROB: 106 LSQ: 64 IQ: 96, IPC: 1.0156
EPOCH ENDS
EPOCH STARTS
TH0 ROB: 4 LSQ: 2 IQ: 0 IPC: 0.1003
TH1 ROB: 4 LSQ: 2 IQ: 0, IPC: 1.1804
TH2 ROB: 4 LSQ: 1 IQ: 0, IPC: 0.0917
TH3 ROB: 106 LSQ: 64 IQ: 96, IPC: 1.0240
EPOCH ENDS
EPOCH STARTS
TH0 ROB: 4 LSQ: 2 IQ: 0 IPC: 0.0998
TH1 ROB: 4 LSQ: 2 IQ: 0, IPC: 1.1737
TH2 ROB: 4 LSQ: 1 IQ: 0, IPC: 0.0912
TH3 ROB: 106 LSQ: 64 IQ: 96, IPC: 1.0324
EPOCH ENDS
EPOCH STARTS
TH0 ROB: 4 LSQ: 2 IQ: 0 IPC: 0.0992
TH1 ROB: 4 LSQ: 2 IQ: 0, IPC: 1.1671
TH2 ROB: 4 LSQ: 1 IQ: 0, IPC: 0.0906
TH3 ROB: 106 LSQ: 64 IQ: 96, IPC: 1.0407
EPOCH ENDS
EPOCH STARTS
TH0 ROB: 4 LSQ: 2 IQ: 0 IPC: 0.0986
TH1 ROB: 4 LSQ: 2 IQ: 0, IPC: 1.1605
TH2 ROB: 4 LSQ: 1 IQ: 0, IPC: 0.0901
TH3 ROB: 106 LSQ: 64 IQ: 96, IPC: 1.0489
EPOCH ENDS
EPOCH STARTS
TH0 ROB: 4 LSQ: 2 IQ: 0 IPC: 0.0981
TH1 ROB: 4 LSQ: 2 IQ: 0, IPC: 1.1540
TH2 ROB: 4 LSQ: 1 IQ: 0, IPC: 0.0896
TH3 ROB: 106 LSQ: 64 IQ: 96, IPC: 1.0570
EPOCH ENDS
EPOCH STARTS
TH0 ROB: 4 LSQ: 2 IQ: 0 IPC: 0.0975
TH1 ROB: 4 LSQ: 2 IQ: 0, IPC: 1.1476
TH2 ROB: 4 LSQ: 1 IQ: 0, IPC: 0.0891
TH3 ROB: 106 LSQ: 64 IQ: 96, IPC: 1.0650
EPOCH ENDS
EPOCH STARTS
TH0 ROB: 4 LSQ: 2 IQ: 0 IPC: 0.0970
TH1 ROB: 4 LSQ: 2 IQ: 0, IPC: 1.1413
TH2 ROB: 4 LSQ: 1 IQ: 0, IPC: 0.0886
TH3 ROB: 106 LSQ: 64 IQ: 96, IPC: 1.0730
EPOCH ENDS
EPOCH STARTS
TH0 ROB: 4 LSQ: 2 IQ: 0 IPC: 0.0965
TH1 ROB: 4 LSQ: 2 IQ: 0, IPC: 1.1350
TH2 ROB: 4 LSQ: 1 IQ: 0, IPC: 0.0882
TH3 ROB: 106 LSQ: 64 IQ: 96, IPC: 1.0808
EPOCH ENDS
EPOCH STARTS
TH0 ROB: 4 LSQ: 2 IQ: 0 IPC: 0.0959
TH1 ROB: 4 LSQ: 2 IQ: 0, IPC: 1.1288
TH2 ROB: 4 LSQ: 1 IQ: 0, IPC: 0.0877
TH3 ROB: 106 LSQ: 64 IQ: 96, IPC: 1.0886
EPOCH ENDS
EPOCH STARTS
TH0 ROB: 4 LSQ: 2 IQ: 0 IPC: 0.0954
TH1 ROB: 4 LSQ: 2 IQ: 0, IPC: 1.1227
TH2 ROB: 4 LSQ: 1 IQ: 0, IPC: 0.0872
TH3 ROB: 106 LSQ: 64 IQ: 96, IPC: 1.0962
EPOCH ENDS
EPOCH STARTS
TH0 ROB: 4 LSQ: 2 IQ: 0 IPC: 0.0949
TH1 ROB: 4 LSQ: 2 IQ: 0, IPC: 1.1166
TH2 ROB: 4 LSQ: 1 IQ: 0, IPC: 0.0867
TH3 ROB: 106 LSQ: 64 IQ: 96, IPC: 1.1038
EPOCH ENDS
EPOCH STARTS
TH0 ROB: 4 LSQ: 2 IQ: 0 IPC: 0.0944
TH1 ROB: 4 LSQ: 2 IQ: 0, IPC: 1.1106
TH2 ROB: 4 LSQ: 1 IQ: 0, IPC: 0.0863
TH3 ROB: 106 LSQ: 64 IQ: 96, IPC: 1.1113
EPOCH ENDS
EPOCH STARTS
TH0 ROB: 4 LSQ: 2 IQ: 0 IPC: 0.0939
TH1 ROB: 4 LSQ: 2 IQ: 0, IPC: 1.1046
TH2 ROB: 4 LSQ: 1 IQ: 0, IPC: 0.0858
TH3 ROB: 106 LSQ: 64 IQ: 96, IPC: 1.1187
EPOCH ENDS
EPOCH STARTS
TH0 ROB: 4 LSQ: 2 IQ: 0 IPC: 0.0934
TH1 ROB: 4 LSQ: 2 IQ: 0, IPC: 1.0988
TH2 ROB: 4 LSQ: 1 IQ: 0, IPC: 0.0853
TH3 ROB: 106 LSQ: 64 IQ: 96, IPC: 1.1261
EPOCH ENDS
EPOCH STARTS
TH0 ROB: 4 LSQ: 2 IQ: 0 IPC: 0.0929
TH1 ROB: 4 LSQ: 2 IQ: 0, IPC: 1.0930
TH2 ROB: 4 LSQ: 1 IQ: 0, IPC: 0.0849
TH3 ROB: 106 LSQ: 64 IQ: 96, IPC: 1.1334
EPOCH ENDS
EPOCH STARTS
TH0 ROB: 4 LSQ: 2 IQ: 0 IPC: 0.0924
TH1 ROB: 4 LSQ: 2 IQ: 0, IPC: 1.0872
TH2 ROB: 4 LSQ: 1 IQ: 0, IPC: 0.0844
TH3 ROB: 106 LSQ: 64 IQ: 96, IPC: 1.1406
EPOCH ENDS
EPOCH STARTS
TH0 ROB: 4 LSQ: 2 IQ: 0 IPC: 0.0919
TH1 ROB: 4 LSQ: 2 IQ: 0, IPC: 1.0815
TH2 ROB: 4 LSQ: 1 IQ: 0, IPC: 0.0840
TH3 ROB: 106 LSQ: 64 IQ: 96, IPC: 1.1477
EPOCH ENDS
EPOCH STARTS
TH0 ROB: 4 LSQ: 2 IQ: 0 IPC: 0.0914
TH1 ROB: 4 LSQ: 2 IQ: 0, IPC: 1.0759
TH2 ROB: 4 LSQ: 1 IQ: 0, IPC: 0.0836
TH3 ROB: 106 LSQ: 64 IQ: 96, IPC: 1.1547
EPOCH ENDS
EPOCH STARTS
TH0 ROB: 4 LSQ: 2 IQ: 0 IPC: 0.0910
TH1 ROB: 4 LSQ: 2 IQ: 0, IPC: 1.0703
TH2 ROB: 4 LSQ: 1 IQ: 0, IPC: 0.0831
TH3 ROB: 106 LSQ: 64 IQ: 96, IPC: 1.1617
EPOCH ENDS
EPOCH STARTS
TH0 ROB: 4 LSQ: 2 IQ: 0 IPC: 0.0905
TH1 ROB: 4 LSQ: 2 IQ: 0, IPC: 1.0648
TH2 ROB: 4 LSQ: 1 IQ: 0, IPC: 0.0827
TH3 ROB: 106 LSQ: 64 IQ: 96, IPC: 1.1686
EPOCH ENDS
EPOCH STARTS
TH0 ROB: 4 LSQ: 2 IQ: 0 IPC: 0.0900
TH1 ROB: 4 LSQ: 2 IQ: 0, IPC: 1.0593
TH2 ROB: 4 LSQ: 1 IQ: 0, IPC: 0.0823
TH3 ROB: 106 LSQ: 64 IQ: 96, IPC: 1.1754
EPOCH ENDS
EPOCH STARTS
TH0 ROB: 4 LSQ: 2 IQ: 0 IPC: 0.0896
TH1 ROB: 4 LSQ: 2 IQ: 0, IPC: 1.0539
TH2 ROB: 4 LSQ: 1 IQ: 0, IPC: 0.0819
TH3 ROB: 106 LSQ: 64 IQ: 96, IPC: 1.1822
EPOCH ENDS
EPOCH STARTS
TH0 ROB: 4 LSQ: 2 IQ: 0 IPC: 0.0891
TH1 ROB: 4 LSQ: 2 IQ: 0, IPC: 1.0486
TH2 ROB: 4 LSQ: 1 IQ: 0, IPC: 0.0814
TH3 ROB: 106 LSQ: 64 IQ: 96, IPC: 1.1889
EPOCH ENDS
EPOCH STARTS
TH0 ROB: 4 LSQ: 2 IQ: 0 IPC: 0.0887
TH1 ROB: 4 LSQ: 2 IQ: 0, IPC: 1.0433
TH2 ROB: 4 LSQ: 1 IQ: 0, IPC: 0.0810
TH3 ROB: 106 LSQ: 64 IQ: 96, IPC: 1.1955
EPOCH ENDS
EPOCH STARTS
TH0 ROB: 4 LSQ: 2 IQ: 0 IPC: 0.0882
TH1 ROB: 4 LSQ: 2 IQ: 0, IPC: 1.0380
TH2 ROB: 4 LSQ: 1 IQ: 0, IPC: 0.0806
TH3 ROB: 106 LSQ: 64 IQ: 96, IPC: 1.2020
EPOCH ENDS
EPOCH STARTS
TH0 ROB: 4 LSQ: 2 IQ: 0 IPC: 0.0878
TH1 ROB: 4 LSQ: 2 IQ: 0, IPC: 1.0328
TH2 ROB: 4 LSQ: 1 IQ: 0, IPC: 0.0802
TH3 ROB: 106 LSQ: 64 IQ: 96, IPC: 1.2085
EPOCH ENDS
EPOCH STARTS
TH0 ROB: 4 LSQ: 2 IQ: 0 IPC: 0.0873
TH1 ROB: 4 LSQ: 2 IQ: 0, IPC: 1.0277
TH2 ROB: 4 LSQ: 1 IQ: 0, IPC: 0.0798
TH3 ROB: 106 LSQ: 64 IQ: 96, IPC: 1.2150
EPOCH ENDS
EPOCH STARTS
TH0 ROB: 4 LSQ: 2 IQ: 0 IPC: 0.0869
TH1 ROB: 4 LSQ: 2 IQ: 0, IPC: 1.0226
TH2 ROB: 4 LSQ: 1 IQ: 0, IPC: 0.0794
TH3 ROB: 106 LSQ: 64 IQ: 96, IPC: 1.2213
EPOCH ENDS
EPOCH STARTS
TH0 ROB: 4 LSQ: 2 IQ: 0 IPC: 0.0865
TH1 ROB: 4 LSQ: 2 IQ: 0, IPC: 1.0176
TH2 ROB: 4 LSQ: 1 IQ: 0, IPC: 0.0790
TH3 ROB: 106 LSQ: 64 IQ: 96, IPC: 1.2276
EPOCH ENDS
EPOCH STARTS
TH0 ROB: 4 LSQ: 2 IQ: 0 IPC: 0.0861
TH1 ROB: 4 LSQ: 2 IQ: 0, IPC: 1.0126
TH2 ROB: 4 LSQ: 1 IQ: 0, IPC: 0.0787
TH3 ROB: 106 LSQ: 64 IQ: 96, IPC: 1.2339
EPOCH ENDS
EPOCH STARTS
TH0 ROB: 4 LSQ: 2 IQ: 0 IPC: 0.0856
TH1 ROB: 4 LSQ: 2 IQ: 0, IPC: 1.0077
TH2 ROB: 4 LSQ: 1 IQ: 0, IPC: 0.0783
TH3 ROB: 106 LSQ: 64 IQ: 96, IPC: 1.2400
EPOCH ENDS
EPOCH STARTS
TH0 ROB: 4 LSQ: 2 IQ: 0 IPC: 0.0852
TH1 ROB: 4 LSQ: 2 IQ: 0, IPC: 1.0028
TH2 ROB: 4 LSQ: 1 IQ: 0, IPC: 0.0779
TH3 ROB: 106 LSQ: 64 IQ: 96, IPC: 1.2461
EPOCH ENDS
EPOCH STARTS
TH0 ROB: 4 LSQ: 2 IQ: 0 IPC: 0.0848
TH1 ROB: 4 LSQ: 2 IQ: 0, IPC: 0.9979
TH2 ROB: 4 LSQ: 1 IQ: 0, IPC: 0.0775
TH3 ROB: 106 LSQ: 64 IQ: 96, IPC: 1.2522
EPOCH ENDS
EPOCH STARTS
TH0 ROB: 4 LSQ: 2 IQ: 0 IPC: 0.0844
TH1 ROB: 4 LSQ: 2 IQ: 0, IPC: 0.9931
TH2 ROB: 4 LSQ: 1 IQ: 0, IPC: 0.0771
TH3 ROB: 106 LSQ: 64 IQ: 96, IPC: 1.2582
EPOCH ENDS
EPOCH STARTS
TH0 ROB: 4 LSQ: 2 IQ: 0 IPC: 0.0840
TH1 ROB: 4 LSQ: 2 IQ: 0, IPC: 0.9884
TH2 ROB: 4 LSQ: 1 IQ: 0, IPC: 0.0768
TH3 ROB: 106 LSQ: 64 IQ: 96, IPC: 1.2641
EPOCH ENDS
EPOCH STARTS
TH0 ROB: 4 LSQ: 2 IQ: 0 IPC: 0.0836
TH1 ROB: 4 LSQ: 2 IQ: 0, IPC: 0.9837
TH2 ROB: 4 LSQ: 1 IQ: 0, IPC: 0.0764
TH3 ROB: 106 LSQ: 64 IQ: 96, IPC: 1.2700
EPOCH ENDS
EPOCH STARTS
TH0 ROB: 4 LSQ: 2 IQ: 0 IPC: 0.0832
TH1 ROB: 4 LSQ: 2 IQ: 0, IPC: 0.9790
TH2 ROB: 4 LSQ: 1 IQ: 0, IPC: 0.0760
TH3 ROB: 106 LSQ: 64 IQ: 96, IPC: 1.2759
EPOCH ENDS
EPOCH STARTS
TH0 ROB: 4 LSQ: 2 IQ: 0 IPC: 0.0828
TH1 ROB: 4 LSQ: 2 IQ: 0, IPC: 0.9744
TH2 ROB: 4 LSQ: 1 IQ: 0, IPC: 0.0757
TH3 ROB: 106 LSQ: 64 IQ: 96, IPC: 1.2816
EPOCH ENDS
EPOCH STARTS
TH0 ROB: 4 LSQ: 2 IQ: 0 IPC: 0.0824
TH1 ROB: 4 LSQ: 2 IQ: 0, IPC: 0.9698
TH2 ROB: 4 LSQ: 1 IQ: 0, IPC: 0.0753
TH3 ROB: 106 LSQ: 64 IQ: 96, IPC: 1.2874
EPOCH ENDS
EPOCH STARTS
TH0 ROB: 4 LSQ: 2 IQ: 0 IPC: 0.0820
TH1 ROB: 4 LSQ: 2 IQ: 0, IPC: 0.9653
TH2 ROB: 4 LSQ: 1 IQ: 0, IPC: 0.0750
TH3 ROB: 106 LSQ: 64 IQ: 96, IPC: 1.2930
EPOCH ENDS
EPOCH STARTS
TH0 ROB: 4 LSQ: 2 IQ: 0 IPC: 0.0817
TH1 ROB: 4 LSQ: 2 IQ: 0, IPC: 0.9608
TH2 ROB: 4 LSQ: 1 IQ: 0, IPC: 0.0746
TH3 ROB: 106 LSQ: 64 IQ: 96, IPC: 1.2986
EPOCH ENDS
EPOCH STARTS
TH0 ROB: 4 LSQ: 2 IQ: 0 IPC: 0.0813
TH1 ROB: 4 LSQ: 2 IQ: 0, IPC: 0.9563
TH2 ROB: 4 LSQ: 1 IQ: 0, IPC: 0.0743
TH3 ROB: 106 LSQ: 64 IQ: 96, IPC: 1.3042
EPOCH ENDS
EPOCH STARTS
TH0 ROB: 4 LSQ: 2 IQ: 0 IPC: 0.0809
TH1 ROB: 4 LSQ: 2 IQ: 0, IPC: 0.9519
TH2 ROB: 4 LSQ: 1 IQ: 0, IPC: 0.0739
TH3 ROB: 106 LSQ: 64 IQ: 96, IPC: 1.3097
EPOCH ENDS
EPOCH STARTS
TH0 ROB: 4 LSQ: 2 IQ: 0 IPC: 0.0805
TH1 ROB: 4 LSQ: 2 IQ: 0, IPC: 0.9476
TH2 ROB: 4 LSQ: 1 IQ: 0, IPC: 0.0736
TH3 ROB: 106 LSQ: 64 IQ: 96, IPC: 1.3152
EPOCH ENDS
EPOCH STARTS
TH0 ROB: 4 LSQ: 2 IQ: 0 IPC: 0.0802
TH1 ROB: 4 LSQ: 2 IQ: 0, IPC: 0.9432
TH2 ROB: 4 LSQ: 1 IQ: 0, IPC: 0.0733
TH3 ROB: 106 LSQ: 64 IQ: 96, IPC: 1.3206
EPOCH ENDS
EPOCH STARTS
TH0 ROB: 4 LSQ: 2 IQ: 0 IPC: 0.0798
TH1 ROB: 4 LSQ: 2 IQ: 0, IPC: 0.9390
TH2 ROB: 4 LSQ: 1 IQ: 0, IPC: 0.0729
TH3 ROB: 106 LSQ: 64 IQ: 96, IPC: 1.3259
EPOCH ENDS
EPOCH STARTS
TH0 ROB: 4 LSQ: 2 IQ: 0 IPC: 0.0794
TH1 ROB: 4 LSQ: 2 IQ: 0, IPC: 0.9347
TH2 ROB: 4 LSQ: 1 IQ: 0, IPC: 0.0726
TH3 ROB: 106 LSQ: 64 IQ: 96, IPC: 1.3312
EPOCH ENDS
EPOCH STARTS
TH0 ROB: 4 LSQ: 2 IQ: 0 IPC: 0.0791
TH1 ROB: 4 LSQ: 2 IQ: 0, IPC: 0.9305
TH2 ROB: 4 LSQ: 1 IQ: 0, IPC: 0.0723
TH3 ROB: 106 LSQ: 64 IQ: 96, IPC: 1.3365
EPOCH ENDS
EPOCH STARTS
TH0 ROB: 4 LSQ: 2 IQ: 0 IPC: 0.0787
TH1 ROB: 4 LSQ: 2 IQ: 0, IPC: 0.9263
TH2 ROB: 4 LSQ: 1 IQ: 0, IPC: 0.0719
TH3 ROB: 106 LSQ: 64 IQ: 96, IPC: 1.3417
EPOCH ENDS
EPOCH STARTS
TH0 ROB: 4 LSQ: 2 IQ: 0 IPC: 0.0784
TH1 ROB: 4 LSQ: 2 IQ: 0, IPC: 0.9222
TH2 ROB: 4 LSQ: 1 IQ: 0, IPC: 0.0716
TH3 ROB: 106 LSQ: 64 IQ: 96, IPC: 1.3469
EPOCH ENDS
EPOCH STARTS
TH0 ROB: 4 LSQ: 2 IQ: 0 IPC: 0.0780
TH1 ROB: 4 LSQ: 2 IQ: 0, IPC: 0.9181
TH2 ROB: 4 LSQ: 1 IQ: 0, IPC: 0.0713
TH3 ROB: 106 LSQ: 64 IQ: 96, IPC: 1.3520
EPOCH ENDS
EPOCH STARTS
TH0 ROB: 4 LSQ: 2 IQ: 0 IPC: 0.0777
TH1 ROB: 4 LSQ: 2 IQ: 0, IPC: 0.9140
TH2 ROB: 4 LSQ: 1 IQ: 0, IPC: 0.0710
TH3 ROB: 106 LSQ: 64 IQ: 96, IPC: 1.3571
EPOCH ENDS
EPOCH STARTS
TH0 ROB: 4 LSQ: 2 IQ: 0 IPC: 0.0773
TH1 ROB: 4 LSQ: 2 IQ: 0, IPC: 0.9100
TH2 ROB: 4 LSQ: 1 IQ: 0, IPC: 0.0707
TH3 ROB: 106 LSQ: 64 IQ: 96, IPC: 1.3621
EPOCH ENDS
EPOCH STARTS
TH0 ROB: 4 LSQ: 2 IQ: 0 IPC: 0.0770
TH1 ROB: 4 LSQ: 2 IQ: 0, IPC: 0.9060
TH2 ROB: 4 LSQ: 1 IQ: 0, IPC: 0.0704
TH3 ROB: 106 LSQ: 64 IQ: 96, IPC: 1.3671
EPOCH ENDS
EPOCH STARTS
TH0 ROB: 4 LSQ: 2 IQ: 0 IPC: 0.0767
TH1 ROB: 4 LSQ: 2 IQ: 0, IPC: 0.9020
TH2 ROB: 4 LSQ: 1 IQ: 0, IPC: 0.0701
TH3 ROB: 106 LSQ: 64 IQ: 96, IPC: 1.3721
EPOCH ENDS
EPOCH STARTS
TH0 ROB: 4 LSQ: 2 IQ: 0 IPC: 0.0763
TH1 ROB: 4 LSQ: 2 IQ: 0, IPC: 0.8981
TH2 ROB: 4 LSQ: 1 IQ: 0, IPC: 0.0698
TH3 ROB: 106 LSQ: 64 IQ: 96, IPC: 1.3770
EPOCH ENDS
EPOCH STARTS
TH0 ROB: 4 LSQ: 2 IQ: 0 IPC: 0.0760
TH1 ROB: 4 LSQ: 2 IQ: 0, IPC: 0.8942
TH2 ROB: 4 LSQ: 1 IQ: 0, IPC: 0.0695
TH3 ROB: 106 LSQ: 64 IQ: 96, IPC: 1.3818
EPOCH ENDS
EPOCH STARTS
TH0 ROB: 4 LSQ: 2 IQ: 0 IPC: 0.0757
TH1 ROB: 4 LSQ: 2 IQ: 0, IPC: 0.8904
TH2 ROB: 4 LSQ: 1 IQ: 0, IPC: 0.0692
TH3 ROB: 106 LSQ: 64 IQ: 96, IPC: 1.3867
EPOCH ENDS
EPOCH STARTS
TH0 ROB: 4 LSQ: 2 IQ: 0 IPC: 0.0754
TH1 ROB: 4 LSQ: 2 IQ: 0, IPC: 0.8866
TH2 ROB: 4 LSQ: 1 IQ: 0, IPC: 0.0689
TH3 ROB: 106 LSQ: 64 IQ: 96, IPC: 1.3914
EPOCH ENDS
EPOCH STARTS
TH0 ROB: 4 LSQ: 2 IQ: 0 IPC: 0.0750
TH1 ROB: 4 LSQ: 2 IQ: 0, IPC: 0.8828
TH2 ROB: 4 LSQ: 1 IQ: 0, IPC: 0.0686
TH3 ROB: 106 LSQ: 64 IQ: 96, IPC: 1.3962
EPOCH ENDS
EPOCH STARTS
TH0 ROB: 4 LSQ: 2 IQ: 0 IPC: 0.0747
TH1 ROB: 4 LSQ: 2 IQ: 0, IPC: 0.8790
TH2 ROB: 4 LSQ: 1 IQ: 0, IPC: 0.0683
TH3 ROB: 106 LSQ: 64 IQ: 96, IPC: 1.4009
EPOCH ENDS
EPOCH STARTS
TH0 ROB: 4 LSQ: 2 IQ: 0 IPC: 0.0744
TH1 ROB: 4 LSQ: 2 IQ: 0, IPC: 0.8753
TH2 ROB: 4 LSQ: 1 IQ: 0, IPC: 0.0680
TH3 ROB: 106 LSQ: 64 IQ: 96, IPC: 1.4055
EPOCH ENDS
EPOCH STARTS
TH0 ROB: 4 LSQ: 2 IQ: 0 IPC: 0.0741
TH1 ROB: 4 LSQ: 2 IQ: 0, IPC: 0.8716
TH2 ROB: 4 LSQ: 1 IQ: 0, IPC: 0.0677
TH3 ROB: 106 LSQ: 64 IQ: 96, IPC: 1.4102
EPOCH ENDS
EPOCH STARTS
TH0 ROB: 4 LSQ: 2 IQ: 0 IPC: 0.0738
TH1 ROB: 4 LSQ: 2 IQ: 0, IPC: 0.8679
TH2 ROB: 4 LSQ: 1 IQ: 0, IPC: 0.0674
TH3 ROB: 106 LSQ: 64 IQ: 96, IPC: 1.4147
EPOCH ENDS
EPOCH STARTS
TH0 ROB: 4 LSQ: 2 IQ: 0 IPC: 0.0735
TH1 ROB: 4 LSQ: 2 IQ: 0, IPC: 0.8643
TH2 ROB: 4 LSQ: 1 IQ: 0, IPC: 0.0671
TH3 ROB: 106 LSQ: 64 IQ: 96, IPC: 1.4193
EPOCH ENDS
EPOCH STARTS
TH0 ROB: 4 LSQ: 2 IQ: 0 IPC: 0.0732
TH1 ROB: 4 LSQ: 2 IQ: 0, IPC: 0.8607
TH2 ROB: 4 LSQ: 1 IQ: 0, IPC: 0.0669
TH3 ROB: 106 LSQ: 64 IQ: 96, IPC: 1.4238
EPOCH ENDS
EPOCH STARTS
TH0 ROB: 4 LSQ: 2 IQ: 0 IPC: 0.0729
TH1 ROB: 4 LSQ: 2 IQ: 0, IPC: 0.8571
TH2 ROB: 4 LSQ: 1 IQ: 0, IPC: 0.0666
TH3 ROB: 106 LSQ: 64 IQ: 96, IPC: 1.4282
EPOCH ENDS
EPOCH STARTS
TH0 ROB: 4 LSQ: 2 IQ: 0 IPC: 0.0725
TH1 ROB: 4 LSQ: 2 IQ: 0, IPC: 0.8536
TH2 ROB: 4 LSQ: 1 IQ: 0, IPC: 0.0663
TH3 ROB: 106 LSQ: 64 IQ: 96, IPC: 1.4327
EPOCH ENDS
EPOCH STARTS
TH0 ROB: 4 LSQ: 2 IQ: 0 IPC: 0.0723
TH1 ROB: 4 LSQ: 2 IQ: 0, IPC: 0.8501
TH2 ROB: 4 LSQ: 1 IQ: 0, IPC: 0.0660
TH3 ROB: 106 LSQ: 64 IQ: 96, IPC: 1.4371
EPOCH ENDS
EPOCH STARTS
TH0 ROB: 4 LSQ: 2 IQ: 0 IPC: 0.0720
TH1 ROB: 4 LSQ: 2 IQ: 0, IPC: 0.8466
TH2 ROB: 4 LSQ: 1 IQ: 0, IPC: 0.0658
TH3 ROB: 106 LSQ: 64 IQ: 96, IPC: 1.4414
EPOCH ENDS
EPOCH STARTS
TH0 ROB: 4 LSQ: 2 IQ: 0 IPC: 0.0717
TH1 ROB: 4 LSQ: 2 IQ: 0, IPC: 0.8431
TH2 ROB: 4 LSQ: 1 IQ: 0, IPC: 0.0655
TH3 ROB: 106 LSQ: 64 IQ: 96, IPC: 1.4457
EPOCH ENDS
EPOCH STARTS
TH0 ROB: 4 LSQ: 2 IQ: 0 IPC: 0.0714
TH1 ROB: 4 LSQ: 2 IQ: 0, IPC: 0.8397
TH2 ROB: 4 LSQ: 1 IQ: 0, IPC: 0.0652
TH3 ROB: 106 LSQ: 64 IQ: 96, IPC: 1.4500
EPOCH ENDS
EPOCH STARTS
TH0 ROB: 4 LSQ: 2 IQ: 0 IPC: 0.0711
TH1 ROB: 4 LSQ: 2 IQ: 0, IPC: 0.8363
TH2 ROB: 4 LSQ: 1 IQ: 0, IPC: 0.0650
TH3 ROB: 106 LSQ: 64 IQ: 96, IPC: 1.4543
EPOCH ENDS
EPOCH STARTS
TH0 ROB: 4 LSQ: 2 IQ: 0 IPC: 0.0708
TH1 ROB: 4 LSQ: 2 IQ: 0, IPC: 0.8329
TH2 ROB: 4 LSQ: 1 IQ: 0, IPC: 0.0647
TH3 ROB: 106 LSQ: 64 IQ: 96, IPC: 1.4585
EPOCH ENDS
EPOCH STARTS
TH0 ROB: 4 LSQ: 2 IQ: 0 IPC: 0.0705
TH1 ROB: 4 LSQ: 2 IQ: 0, IPC: 0.8296
TH2 ROB: 4 LSQ: 1 IQ: 0, IPC: 0.0644
TH3 ROB: 106 LSQ: 64 IQ: 96, IPC: 1.4627
EPOCH ENDS
EPOCH STARTS
TH0 ROB: 4 LSQ: 2 IQ: 0 IPC: 0.0702
TH1 ROB: 4 LSQ: 2 IQ: 0, IPC: 0.8263
TH2 ROB: 4 LSQ: 1 IQ: 0, IPC: 0.0642
TH3 ROB: 106 LSQ: 64 IQ: 96, IPC: 1.4668
EPOCH ENDS
EPOCH STARTS
TH0 ROB: 4 LSQ: 2 IQ: 0 IPC: 0.0699
TH1 ROB: 4 LSQ: 2 IQ: 0, IPC: 0.8230
TH2 ROB: 4 LSQ: 1 IQ: 0, IPC: 0.0639
TH3 ROB: 106 LSQ: 64 IQ: 96, IPC: 1.4709
EPOCH ENDS
EPOCH STARTS
TH0 ROB: 4 LSQ: 2 IQ: 0 IPC: 0.0697
TH1 ROB: 4 LSQ: 2 IQ: 0, IPC: 0.8197
TH2 ROB: 4 LSQ: 1 IQ: 0, IPC: 0.0637
TH3 ROB: 106 LSQ: 64 IQ: 96, IPC: 1.4750
EPOCH ENDS
EPOCH STARTS
TH0 ROB: 4 LSQ: 2 IQ: 0 IPC: 0.0694
TH1 ROB: 4 LSQ: 2 IQ: 0, IPC: 0.8165
TH2 ROB: 4 LSQ: 1 IQ: 0, IPC: 0.0634
TH3 ROB: 106 LSQ: 64 IQ: 96, IPC: 1.4791
EPOCH ENDS
EPOCH STARTS
TH0 ROB: 4 LSQ: 2 IQ: 0 IPC: 0.0691
TH1 ROB: 4 LSQ: 2 IQ: 0, IPC: 0.8133
TH2 ROB: 4 LSQ: 1 IQ: 0, IPC: 0.0632
TH3 ROB: 106 LSQ: 64 IQ: 96, IPC: 1.4831
EPOCH ENDS
EPOCH STARTS
TH0 ROB: 4 LSQ: 2 IQ: 0 IPC: 0.0689
TH1 ROB: 4 LSQ: 2 IQ: 0, IPC: 0.8101
TH2 ROB: 4 LSQ: 1 IQ: 0, IPC: 0.0629
TH3 ROB: 106 LSQ: 64 IQ: 96, IPC: 1.4871
EPOCH ENDS
EPOCH STARTS
TH0 ROB: 4 LSQ: 2 IQ: 0 IPC: 0.0686
TH1 ROB: 4 LSQ: 2 IQ: 0, IPC: 0.8069
TH2 ROB: 4 LSQ: 1 IQ: 0, IPC: 0.0627
TH3 ROB: 106 LSQ: 64 IQ: 96, IPC: 1.4910
EPOCH ENDS
EPOCH STARTS
TH0 ROB: 4 LSQ: 2 IQ: 0 IPC: 0.0683
TH1 ROB: 4 LSQ: 2 IQ: 0, IPC: 0.8038
TH2 ROB: 4 LSQ: 1 IQ: 0, IPC: 0.0624
TH3 ROB: 106 LSQ: 64 IQ: 96, IPC: 1.4950
EPOCH ENDS
EPOCH STARTS
TH0 ROB: 4 LSQ: 2 IQ: 0 IPC: 0.0681
TH1 ROB: 4 LSQ: 2 IQ: 0, IPC: 0.8007
TH2 ROB: 4 LSQ: 1 IQ: 0, IPC: 0.0622
TH3 ROB: 106 LSQ: 64 IQ: 96, IPC: 1.4989
EPOCH ENDS
EPOCH STARTS
TH0 ROB: 4 LSQ: 2 IQ: 0 IPC: 0.0678
TH1 ROB: 4 LSQ: 2 IQ: 0, IPC: 0.7976
TH2 ROB: 4 LSQ: 1 IQ: 0, IPC: 0.0619
TH3 ROB: 106 LSQ: 64 IQ: 96, IPC: 1.5027
EPOCH ENDS
EPOCH STARTS
TH0 ROB: 4 LSQ: 2 IQ: 0 IPC: 0.0675
TH1 ROB: 4 LSQ: 2 IQ: 0, IPC: 0.7945
TH2 ROB: 4 LSQ: 1 IQ: 0, IPC: 0.0617
TH3 ROB: 106 LSQ: 64 IQ: 96, IPC: 1.5066
EPOCH ENDS
EPOCH STARTS
TH0 ROB: 4 LSQ: 2 IQ: 0 IPC: 0.0673
TH1 ROB: 4 LSQ: 2 IQ: 0, IPC: 0.7915
TH2 ROB: 4 LSQ: 1 IQ: 0, IPC: 0.0615
TH3 ROB: 106 LSQ: 64 IQ: 96, IPC: 1.5104
EPOCH ENDS
EPOCH STARTS
TH0 ROB: 4 LSQ: 2 IQ: 0 IPC: 0.0670
TH1 ROB: 4 LSQ: 2 IQ: 0, IPC: 0.7884
TH2 ROB: 4 LSQ: 1 IQ: 0, IPC: 0.0612
TH3 ROB: 106 LSQ: 64 IQ: 96, IPC: 1.5141
EPOCH ENDS
EPOCH STARTS
TH0 ROB: 4 LSQ: 2 IQ: 0 IPC: 0.0668
TH1 ROB: 4 LSQ: 2 IQ: 0, IPC: 0.7854
TH2 ROB: 4 LSQ: 1 IQ: 0, IPC: 0.0610
TH3 ROB: 106 LSQ: 64 IQ: 96, IPC: 1.5179
EPOCH ENDS
EPOCH STARTS
TH0 ROB: 4 LSQ: 2 IQ: 0 IPC: 0.0665
TH1 ROB: 4 LSQ: 2 IQ: 0, IPC: 0.7825
TH2 ROB: 4 LSQ: 1 IQ: 0, IPC: 0.0608
TH3 ROB: 106 LSQ: 64 IQ: 96, IPC: 1.5216
EPOCH ENDS
EPOCH STARTS
TH0 ROB: 4 LSQ: 2 IQ: 0 IPC: 0.0663
TH1 ROB: 4 LSQ: 2 IQ: 0, IPC: 0.7795
TH2 ROB: 4 LSQ: 1 IQ: 0, IPC: 0.0605
TH3 ROB: 106 LSQ: 64 IQ: 96, IPC: 1.5253
EPOCH ENDS
EPOCH STARTS
TH0 ROB: 4 LSQ: 2 IQ: 0 IPC: 0.0660
TH1 ROB: 4 LSQ: 2 IQ: 0, IPC: 0.7766
TH2 ROB: 4 LSQ: 1 IQ: 0, IPC: 0.0603
TH3 ROB: 106 LSQ: 64 IQ: 96, IPC: 1.5290
EPOCH ENDS
EPOCH STARTS
TH0 ROB: 4 LSQ: 2 IQ: 0 IPC: 0.0658
TH1 ROB: 4 LSQ: 2 IQ: 0, IPC: 0.7737
TH2 ROB: 4 LSQ: 1 IQ: 0, IPC: 0.0601
TH3 ROB: 106 LSQ: 64 IQ: 96, IPC: 1.5326
EPOCH ENDS
EPOCH STARTS
TH0 ROB: 4 LSQ: 2 IQ: 0 IPC: 0.0655
TH1 ROB: 4 LSQ: 2 IQ: 0, IPC: 0.7708
TH2 ROB: 4 LSQ: 1 IQ: 0, IPC: 0.0599
TH3 ROB: 106 LSQ: 64 IQ: 96, IPC: 1.5362
EPOCH ENDS
EPOCH STARTS
TH0 ROB: 4 LSQ: 2 IQ: 0 IPC: 0.0653
TH1 ROB: 4 LSQ: 2 IQ: 0, IPC: 0.7679
TH2 ROB: 4 LSQ: 1 IQ: 0, IPC: 0.0596
TH3 ROB: 106 LSQ: 64 IQ: 96, IPC: 1.5398
EPOCH ENDS
EPOCH STARTS
TH0 ROB: 4 LSQ: 2 IQ: 0 IPC: 0.0650
TH1 ROB: 4 LSQ: 2 IQ: 0, IPC: 0.7651
TH2 ROB: 4 LSQ: 1 IQ: 0, IPC: 0.0594
TH3 ROB: 106 LSQ: 64 IQ: 96, IPC: 1.5434
EPOCH ENDS
EPOCH STARTS
TH0 ROB: 4 LSQ: 2 IQ: 0 IPC: 0.0648
TH1 ROB: 4 LSQ: 2 IQ: 0, IPC: 0.7622
TH2 ROB: 4 LSQ: 1 IQ: 0, IPC: 0.0592
TH3 ROB: 106 LSQ: 64 IQ: 96, IPC: 1.5469
EPOCH ENDS
EPOCH STARTS
TH0 ROB: 4 LSQ: 2 IQ: 0 IPC: 0.0645
TH1 ROB: 4 LSQ: 2 IQ: 0, IPC: 0.7594
TH2 ROB: 4 LSQ: 1 IQ: 0, IPC: 0.0590
TH3 ROB: 106 LSQ: 64 IQ: 96, IPC: 1.5504
EPOCH ENDS
EPOCH STARTS
TH0 ROB: 4 LSQ: 2 IQ: 0 IPC: 0.0643
TH1 ROB: 4 LSQ: 2 IQ: 0, IPC: 0.7567
TH2 ROB: 4 LSQ: 1 IQ: 0, IPC: 0.0588
TH3 ROB: 106 LSQ: 64 IQ: 96, IPC: 1.5539
EPOCH ENDS
EPOCH STARTS
TH0 ROB: 4 LSQ: 2 IQ: 0 IPC: 0.0641
TH1 ROB: 4 LSQ: 2 IQ: 0, IPC: 0.7539
TH2 ROB: 4 LSQ: 1 IQ: 0, IPC: 0.0586
TH3 ROB: 106 LSQ: 64 IQ: 96, IPC: 1.5573
EPOCH ENDS
EPOCH STARTS
TH0 ROB: 4 LSQ: 2 IQ: 0 IPC: 0.0638
TH1 ROB: 4 LSQ: 2 IQ: 0, IPC: 0.7512
TH2 ROB: 4 LSQ: 1 IQ: 0, IPC: 0.0583
TH3 ROB: 106 LSQ: 64 IQ: 96, IPC: 1.5607
EPOCH ENDS
EPOCH STARTS
TH0 ROB: 4 LSQ: 2 IQ: 0 IPC: 0.0636
TH1 ROB: 4 LSQ: 2 IQ: 0, IPC: 0.7484
TH2 ROB: 4 LSQ: 1 IQ: 0, IPC: 0.0581
TH3 ROB: 106 LSQ: 64 IQ: 96, IPC: 1.5642
EPOCH ENDS
EPOCH STARTS
TH0 ROB: 4 LSQ: 2 IQ: 0 IPC: 0.0634
TH1 ROB: 4 LSQ: 2 IQ: 0, IPC: 0.7457
TH2 ROB: 4 LSQ: 1 IQ: 0, IPC: 0.0579
TH3 ROB: 106 LSQ: 64 IQ: 96, IPC: 1.5675
EPOCH ENDS
EPOCH STARTS
TH0 ROB: 4 LSQ: 2 IQ: 0 IPC: 0.0632
TH1 ROB: 4 LSQ: 2 IQ: 0, IPC: 0.7431
TH2 ROB: 4 LSQ: 1 IQ: 0, IPC: 0.0577
TH3 ROB: 106 LSQ: 64 IQ: 96, IPC: 1.5709
EPOCH ENDS
EPOCH STARTS
TH0 ROB: 4 LSQ: 2 IQ: 0 IPC: 0.0629
TH1 ROB: 4 LSQ: 2 IQ: 0, IPC: 0.7404
TH2 ROB: 4 LSQ: 1 IQ: 0, IPC: 0.0575
TH3 ROB: 106 LSQ: 64 IQ: 96, IPC: 1.5742
EPOCH ENDS
EPOCH STARTS
TH0 ROB: 4 LSQ: 2 IQ: 0 IPC: 0.0627
TH1 ROB: 4 LSQ: 2 IQ: 0, IPC: 0.7377
TH2 ROB: 4 LSQ: 1 IQ: 0, IPC: 0.0573
TH3 ROB: 106 LSQ: 64 IQ: 96, IPC: 1.5775
EPOCH ENDS
EPOCH STARTS
TH0 ROB: 4 LSQ: 2 IQ: 0 IPC: 0.0625
TH1 ROB: 4 LSQ: 2 IQ: 0, IPC: 0.7351
TH2 ROB: 4 LSQ: 1 IQ: 0, IPC: 0.0571
TH3 ROB: 106 LSQ: 64 IQ: 96, IPC: 1.5808
EPOCH ENDS
EPOCH STARTS
TH0 ROB: 4 LSQ: 2 IQ: 0 IPC: 0.0623
TH1 ROB: 4 LSQ: 2 IQ: 0, IPC: 0.7325
TH2 ROB: 4 LSQ: 1 IQ: 0, IPC: 0.0569
TH3 ROB: 106 LSQ: 64 IQ: 96, IPC: 1.5841
EPOCH ENDS
EPOCH STARTS
TH0 ROB: 4 LSQ: 2 IQ: 0 IPC: 0.0620
TH1 ROB: 4 LSQ: 2 IQ: 0, IPC: 0.7299
TH2 ROB: 4 LSQ: 1 IQ: 0, IPC: 0.0567
TH3 ROB: 106 LSQ: 64 IQ: 96, IPC: 1.5873
EPOCH ENDS
EPOCH STARTS
TH0 ROB: 4 LSQ: 2 IQ: 0 IPC: 0.0618
TH1 ROB: 4 LSQ: 2 IQ: 0, IPC: 0.7274
TH2 ROB: 4 LSQ: 1 IQ: 0, IPC: 0.0565
TH3 ROB: 106 LSQ: 64 IQ: 96, IPC: 1.5905
EPOCH ENDS
EPOCH STARTS
TH0 ROB: 4 LSQ: 2 IQ: 0 IPC: 0.0616
TH1 ROB: 4 LSQ: 2 IQ: 0, IPC: 0.7248
TH2 ROB: 4 LSQ: 1 IQ: 0, IPC: 0.0563
TH3 ROB: 106 LSQ: 64 IQ: 96, IPC: 1.5937
EPOCH ENDS
EPOCH STARTS
TH0 ROB: 4 LSQ: 2 IQ: 0 IPC: 0.0614
TH1 ROB: 4 LSQ: 2 IQ: 0, IPC: 0.7223
TH2 ROB: 4 LSQ: 1 IQ: 0, IPC: 0.0561
TH3 ROB: 106 LSQ: 64 IQ: 96, IPC: 1.5969
EPOCH ENDS
EPOCH STARTS
TH0 ROB: 4 LSQ: 2 IQ: 0 IPC: 0.0612
TH1 ROB: 4 LSQ: 2 IQ: 0, IPC: 0.7198
TH2 ROB: 4 LSQ: 1 IQ: 0, IPC: 0.0559
TH3 ROB: 106 LSQ: 64 IQ: 96, IPC: 1.6000
EPOCH ENDS
EPOCH STARTS
TH0 ROB: 4 LSQ: 2 IQ: 0 IPC: 0.0610
TH1 ROB: 4 LSQ: 2 IQ: 0, IPC: 0.7173
TH2 ROB: 4 LSQ: 1 IQ: 0, IPC: 0.0557
TH3 ROB: 106 LSQ: 64 IQ: 96, IPC: 1.6031
EPOCH ENDS
EPOCH STARTS
TH0 ROB: 4 LSQ: 2 IQ: 0 IPC: 0.0608
TH1 ROB: 4 LSQ: 2 IQ: 0, IPC: 0.7148
TH2 ROB: 4 LSQ: 1 IQ: 0, IPC: 0.0555
TH3 ROB: 106 LSQ: 64 IQ: 96, IPC: 1.6062
EPOCH ENDS
EPOCH STARTS
TH0 ROB: 4 LSQ: 2 IQ: 0 IPC: 0.0605
TH1 ROB: 4 LSQ: 2 IQ: 0, IPC: 0.7123
TH2 ROB: 4 LSQ: 1 IQ: 0, IPC: 0.0553
TH3 ROB: 106 LSQ: 64 IQ: 96, IPC: 1.6093
EPOCH ENDS
EPOCH STARTS
TH0 ROB: 4 LSQ: 2 IQ: 0 IPC: 0.0603
TH1 ROB: 4 LSQ: 2 IQ: 0, IPC: 0.7099
TH2 ROB: 4 LSQ: 1 IQ: 0, IPC: 0.0551
TH3 ROB: 106 LSQ: 64 IQ: 96, IPC: 1.6124
EPOCH ENDS
EPOCH STARTS
TH0 ROB: 4 LSQ: 2 IQ: 0 IPC: 0.0601
TH1 ROB: 4 LSQ: 2 IQ: 0, IPC: 0.7074
TH2 ROB: 4 LSQ: 1 IQ: 0, IPC: 0.0549
TH3 ROB: 106 LSQ: 64 IQ: 96, IPC: 1.6154
EPOCH ENDS
EPOCH STARTS
TH0 ROB: 4 LSQ: 2 IQ: 0 IPC: 0.0599
TH1 ROB: 4 LSQ: 2 IQ: 0, IPC: 0.7050
TH2 ROB: 4 LSQ: 1 IQ: 0, IPC: 0.0548
TH3 ROB: 106 LSQ: 64 IQ: 96, IPC: 1.6185
EPOCH ENDS
EPOCH STARTS
TH0 ROB: 4 LSQ: 2 IQ: 0 IPC: 0.0597
TH1 ROB: 4 LSQ: 2 IQ: 0, IPC: 0.7026
TH2 ROB: 4 LSQ: 1 IQ: 0, IPC: 0.0546
TH3 ROB: 106 LSQ: 64 IQ: 96, IPC: 1.6214
EPOCH ENDS
EPOCH STARTS
TH0 ROB: 4 LSQ: 2 IQ: 0 IPC: 0.0595
TH1 ROB: 4 LSQ: 2 IQ: 0, IPC: 0.7002
TH2 ROB: 4 LSQ: 1 IQ: 0, IPC: 0.0544
TH3 ROB: 106 LSQ: 64 IQ: 96, IPC: 1.6244
EPOCH ENDS
EPOCH STARTS
TH0 ROB: 4 LSQ: 2 IQ: 0 IPC: 0.0593
TH1 ROB: 4 LSQ: 2 IQ: 0, IPC: 0.6979
TH2 ROB: 4 LSQ: 1 IQ: 0, IPC: 0.0542
TH3 ROB: 106 LSQ: 64 IQ: 96, IPC: 1.6274
EPOCH ENDS
EPOCH STARTS
TH0 ROB: 4 LSQ: 2 IQ: 0 IPC: 0.0591
TH1 ROB: 4 LSQ: 2 IQ: 0, IPC: 0.6955
TH2 ROB: 4 LSQ: 1 IQ: 0, IPC: 0.0540
TH3 ROB: 106 LSQ: 64 IQ: 96, IPC: 1.6303
EPOCH ENDS
EPOCH STARTS
TH0 ROB: 4 LSQ: 2 IQ: 0 IPC: 0.0589
TH1 ROB: 4 LSQ: 2 IQ: 0, IPC: 0.6932
TH2 ROB: 4 LSQ: 1 IQ: 0, IPC: 0.0538
TH3 ROB: 106 LSQ: 64 IQ: 96, IPC: 1.6332
EPOCH ENDS
EPOCH STARTS
TH0 ROB: 4 LSQ: 2 IQ: 0 IPC: 0.0587
TH1 ROB: 4 LSQ: 2 IQ: 0, IPC: 0.6909
TH2 ROB: 4 LSQ: 1 IQ: 0, IPC: 0.0537
TH3 ROB: 106 LSQ: 64 IQ: 96, IPC: 1.6361
EPOCH ENDS
EPOCH STARTS
TH0 ROB: 4 LSQ: 2 IQ: 0 IPC: 0.0585
TH1 ROB: 4 LSQ: 2 IQ: 0, IPC: 0.6886
TH2 ROB: 4 LSQ: 1 IQ: 0, IPC: 0.0535
TH3 ROB: 106 LSQ: 64 IQ: 96, IPC: 1.6390
EPOCH ENDS
EPOCH STARTS
TH0 ROB: 4 LSQ: 2 IQ: 0 IPC: 0.0583
TH1 ROB: 4 LSQ: 2 IQ: 0, IPC: 0.6863
TH2 ROB: 4 LSQ: 1 IQ: 0, IPC: 0.0533
TH3 ROB: 106 LSQ: 64 IQ: 96, IPC: 1.6419
EPOCH ENDS
EPOCH STARTS
TH0 ROB: 4 LSQ: 2 IQ: 0 IPC: 0.0581
TH1 ROB: 4 LSQ: 2 IQ: 0, IPC: 0.6840
TH2 ROB: 4 LSQ: 1 IQ: 0, IPC: 0.0531
TH3 ROB: 106 LSQ: 64 IQ: 96, IPC: 1.6447
EPOCH ENDS
EPOCH STARTS
TH0 ROB: 4 LSQ: 2 IQ: 0 IPC: 0.0579
TH1 ROB: 4 LSQ: 2 IQ: 0, IPC: 0.6817
TH2 ROB: 4 LSQ: 1 IQ: 0, IPC: 0.0530
TH3 ROB: 106 LSQ: 64 IQ: 96, IPC: 1.6475
EPOCH ENDS
EPOCH STARTS
TH0 ROB: 4 LSQ: 2 IQ: 0 IPC: 0.0578
TH1 ROB: 4 LSQ: 2 IQ: 0, IPC: 0.6795
TH2 ROB: 4 LSQ: 1 IQ: 0, IPC: 0.0528
TH3 ROB: 106 LSQ: 64 IQ: 96, IPC: 1.6503
EPOCH ENDS
EPOCH STARTS
TH0 ROB: 4 LSQ: 2 IQ: 0 IPC: 0.0576
TH1 ROB: 4 LSQ: 2 IQ: 0, IPC: 0.6773
TH2 ROB: 4 LSQ: 1 IQ: 0, IPC: 0.0526
TH3 ROB: 106 LSQ: 64 IQ: 96, IPC: 1.6531
EPOCH ENDS
EPOCH STARTS
TH0 ROB: 4 LSQ: 2 IQ: 0 IPC: 0.0574
TH1 ROB: 4 LSQ: 2 IQ: 0, IPC: 0.6751
TH2 ROB: 4 LSQ: 1 IQ: 0, IPC: 0.0524
TH3 ROB: 106 LSQ: 64 IQ: 96, IPC: 1.6559
EPOCH ENDS
EPOCH STARTS
TH0 ROB: 4 LSQ: 2 IQ: 0 IPC: 0.0572
TH1 ROB: 4 LSQ: 2 IQ: 0, IPC: 0.6729
TH2 ROB: 4 LSQ: 1 IQ: 0, IPC: 0.0523
TH3 ROB: 106 LSQ: 64 IQ: 96, IPC: 1.6587
EPOCH ENDS
EPOCH STARTS
TH0 ROB: 4 LSQ: 2 IQ: 0 IPC: 0.0570
TH1 ROB: 4 LSQ: 2 IQ: 0, IPC: 0.6707
TH2 ROB: 4 LSQ: 1 IQ: 0, IPC: 0.0521
TH3 ROB: 106 LSQ: 64 IQ: 96, IPC: 1.6614
EPOCH ENDS
EPOCH STARTS
TH0 ROB: 4 LSQ: 2 IQ: 0 IPC: 0.0568
TH1 ROB: 4 LSQ: 2 IQ: 0, IPC: 0.6685
TH2 ROB: 4 LSQ: 1 IQ: 0, IPC: 0.0519
TH3 ROB: 106 LSQ: 64 IQ: 96, IPC: 1.6641
EPOCH ENDS
EPOCH STARTS
TH0 ROB: 4 LSQ: 2 IQ: 0 IPC: 0.0566
TH1 ROB: 4 LSQ: 2 IQ: 0, IPC: 0.6664
TH2 ROB: 4 LSQ: 1 IQ: 0, IPC: 0.0518
TH3 ROB: 106 LSQ: 64 IQ: 96, IPC: 1.6668
EPOCH ENDS
EPOCH STARTS
TH0 ROB: 4 LSQ: 2 IQ: 0 IPC: 0.0565
TH1 ROB: 4 LSQ: 2 IQ: 0, IPC: 0.6642
TH2 ROB: 4 LSQ: 1 IQ: 0, IPC: 0.0516
TH3 ROB: 106 LSQ: 64 IQ: 96, IPC: 1.6695
EPOCH ENDS
EPOCH STARTS
TH0 ROB: 4 LSQ: 2 IQ: 0 IPC: 0.0563
TH1 ROB: 4 LSQ: 2 IQ: 0, IPC: 0.6621
TH2 ROB: 4 LSQ: 1 IQ: 0, IPC: 0.0514
TH3 ROB: 106 LSQ: 64 IQ: 96, IPC: 1.6721
EPOCH ENDS
EPOCH STARTS
TH0 ROB: 4 LSQ: 2 IQ: 0 IPC: 0.0561
TH1 ROB: 4 LSQ: 2 IQ: 0, IPC: 0.6600
TH2 ROB: 4 LSQ: 1 IQ: 0, IPC: 0.0513
TH3 ROB: 106 LSQ: 64 IQ: 96, IPC: 1.6748
EPOCH ENDS
EPOCH STARTS
TH0 ROB: 4 LSQ: 2 IQ: 0 IPC: 0.0559
TH1 ROB: 4 LSQ: 2 IQ: 0, IPC: 0.6579
TH2 ROB: 4 LSQ: 1 IQ: 0, IPC: 0.0511
TH3 ROB: 106 LSQ: 64 IQ: 96, IPC: 1.6774
EPOCH ENDS
EPOCH STARTS
TH0 ROB: 4 LSQ: 2 IQ: 0 IPC: 0.0557
TH1 ROB: 4 LSQ: 2 IQ: 0, IPC: 0.6558
TH2 ROB: 4 LSQ: 1 IQ: 0, IPC: 0.0509
TH3 ROB: 106 LSQ: 64 IQ: 96, IPC: 1.6800
EPOCH ENDS
EPOCH STARTS
TH0 ROB: 4 LSQ: 2 IQ: 0 IPC: 0.0556
TH1 ROB: 4 LSQ: 2 IQ: 0, IPC: 0.6537
TH2 ROB: 4 LSQ: 1 IQ: 0, IPC: 0.0508
TH3 ROB: 106 LSQ: 64 IQ: 96, IPC: 1.6826
EPOCH ENDS
EPOCH STARTS
TH0 ROB: 4 LSQ: 2 IQ: 0 IPC: 0.0554
TH1 ROB: 4 LSQ: 2 IQ: 0, IPC: 0.6516
TH2 ROB: 4 LSQ: 1 IQ: 0, IPC: 0.0506
TH3 ROB: 106 LSQ: 64 IQ: 96, IPC: 1.6852
EPOCH ENDS
EPOCH STARTS
TH0 ROB: 4 LSQ: 2 IQ: 0 IPC: 0.0552
TH1 ROB: 4 LSQ: 2 IQ: 0, IPC: 0.6496
TH2 ROB: 4 LSQ: 1 IQ: 0, IPC: 0.0505
TH3 ROB: 106 LSQ: 64 IQ: 96, IPC: 1.6878
EPOCH ENDS
EPOCH STARTS
TH0 ROB: 4 LSQ: 2 IQ: 0 IPC: 0.0550
TH1 ROB: 4 LSQ: 2 IQ: 0, IPC: 0.6476
TH2 ROB: 4 LSQ: 1 IQ: 0, IPC: 0.0503
TH3 ROB: 106 LSQ: 64 IQ: 96, IPC: 1.6903
EPOCH ENDS
EPOCH STARTS
TH0 ROB: 4 LSQ: 2 IQ: 0 IPC: 0.0549
TH1 ROB: 4 LSQ: 2 IQ: 0, IPC: 0.6455
TH2 ROB: 4 LSQ: 1 IQ: 0, IPC: 0.0501
TH3 ROB: 106 LSQ: 64 IQ: 96, IPC: 1.6928
EPOCH ENDS
EPOCH STARTS
TH0 ROB: 4 LSQ: 2 IQ: 0 IPC: 0.0547
TH1 ROB: 4 LSQ: 2 IQ: 0, IPC: 0.6435
TH2 ROB: 4 LSQ: 1 IQ: 0, IPC: 0.0500
TH3 ROB: 106 LSQ: 64 IQ: 96, IPC: 1.6953
EPOCH ENDS
EPOCH STARTS
TH0 ROB: 4 LSQ: 2 IQ: 0 IPC: 0.0545
TH1 ROB: 4 LSQ: 2 IQ: 0, IPC: 0.6415
TH2 ROB: 4 LSQ: 1 IQ: 0, IPC: 0.0498
TH3 ROB: 106 LSQ: 64 IQ: 96, IPC: 1.6978
EPOCH ENDS
EPOCH STARTS
TH0 ROB: 4 LSQ: 2 IQ: 0 IPC: 0.0544
TH1 ROB: 4 LSQ: 2 IQ: 0, IPC: 0.6395
TH2 ROB: 4 LSQ: 1 IQ: 0, IPC: 0.0497
TH3 ROB: 106 LSQ: 64 IQ: 96, IPC: 1.7003
EPOCH ENDS
EPOCH STARTS
TH0 ROB: 4 LSQ: 2 IQ: 0 IPC: 0.0542
TH1 ROB: 4 LSQ: 2 IQ: 0, IPC: 0.6376
TH2 ROB: 4 LSQ: 1 IQ: 0, IPC: 0.0495
TH3 ROB: 106 LSQ: 64 IQ: 96, IPC: 1.7028
EPOCH ENDS
EPOCH STARTS
TH0 ROB: 4 LSQ: 2 IQ: 0 IPC: 0.0540
TH1 ROB: 4 LSQ: 2 IQ: 0, IPC: 0.6356
TH2 ROB: 4 LSQ: 1 IQ: 0, IPC: 0.0494
TH3 ROB: 106 LSQ: 64 IQ: 96, IPC: 1.7052
EPOCH ENDS
EPOCH STARTS
TH0 ROB: 4 LSQ: 2 IQ: 0 IPC: 0.0539
TH1 ROB: 4 LSQ: 2 IQ: 0, IPC: 0.6336
TH2 ROB: 4 LSQ: 1 IQ: 0, IPC: 0.0492
TH3 ROB: 106 LSQ: 64 IQ: 96, IPC: 1.7077
EPOCH ENDS
EPOCH STARTS
TH0 ROB: 4 LSQ: 2 IQ: 0 IPC: 0.0537
TH1 ROB: 4 LSQ: 2 IQ: 0, IPC: 0.6317
TH2 ROB: 4 LSQ: 1 IQ: 0, IPC: 0.0491
TH3 ROB: 106 LSQ: 64 IQ: 96, IPC: 1.7101
EPOCH ENDS
EPOCH STARTS
TH0 ROB: 4 LSQ: 2 IQ: 0 IPC: 0.0535
TH1 ROB: 4 LSQ: 2 IQ: 0, IPC: 0.6298
TH2 ROB: 4 LSQ: 1 IQ: 0, IPC: 0.0489
TH3 ROB: 106 LSQ: 64 IQ: 96, IPC: 1.7125
EPOCH ENDS
EPOCH STARTS
TH0 ROB: 4 LSQ: 2 IQ: 0 IPC: 0.0534
TH1 ROB: 4 LSQ: 2 IQ: 0, IPC: 0.6279
TH2 ROB: 4 LSQ: 1 IQ: 0, IPC: 0.0488
TH3 ROB: 106 LSQ: 64 IQ: 96, IPC: 1.7149
EPOCH ENDS
EPOCH STARTS
TH0 ROB: 4 LSQ: 2 IQ: 0 IPC: 0.0532
TH1 ROB: 4 LSQ: 2 IQ: 0, IPC: 0.6260
TH2 ROB: 4 LSQ: 1 IQ: 0, IPC: 0.0486
TH3 ROB: 106 LSQ: 64 IQ: 96, IPC: 1.7173
EPOCH ENDS
EPOCH STARTS
TH0 ROB: 4 LSQ: 2 IQ: 0 IPC: 0.0530
TH1 ROB: 4 LSQ: 2 IQ: 0, IPC: 0.6241
TH2 ROB: 4 LSQ: 1 IQ: 0, IPC: 0.0485
TH3 ROB: 106 LSQ: 64 IQ: 96, IPC: 1.7197
EPOCH ENDS
EPOCH STARTS
TH0 ROB: 4 LSQ: 2 IQ: 0 IPC: 0.0529
TH1 ROB: 4 LSQ: 2 IQ: 0, IPC: 0.6222
TH2 ROB: 4 LSQ: 1 IQ: 0, IPC: 0.0483
TH3 ROB: 106 LSQ: 64 IQ: 96, IPC: 1.7220
EPOCH ENDS
EPOCH STARTS
TH0 ROB: 4 LSQ: 2 IQ: 0 IPC: 0.0527
TH1 ROB: 4 LSQ: 2 IQ: 0, IPC: 0.6203
TH2 ROB: 4 LSQ: 1 IQ: 0, IPC: 0.0482
TH3 ROB: 106 LSQ: 64 IQ: 96, IPC: 1.7243
EPOCH ENDS
EPOCH STARTS
TH0 ROB: 4 LSQ: 2 IQ: 0 IPC: 0.0526
TH1 ROB: 4 LSQ: 2 IQ: 0, IPC: 0.6185
TH2 ROB: 4 LSQ: 1 IQ: 0, IPC: 0.0480
TH3 ROB: 106 LSQ: 64 IQ: 96, IPC: 1.7267
EPOCH ENDS
EPOCH STARTS
TH0 ROB: 4 LSQ: 2 IQ: 0 IPC: 0.0524
TH1 ROB: 4 LSQ: 2 IQ: 0, IPC: 0.6166
TH2 ROB: 4 LSQ: 1 IQ: 0, IPC: 0.0479
TH3 ROB: 106 LSQ: 64 IQ: 96, IPC: 1.7290
EPOCH ENDS
EPOCH STARTS
TH0 ROB: 4 LSQ: 2 IQ: 0 IPC: 0.0523
TH1 ROB: 4 LSQ: 2 IQ: 0, IPC: 0.6148
TH2 ROB: 4 LSQ: 1 IQ: 0, IPC: 0.0478
TH3 ROB: 106 LSQ: 64 IQ: 96, IPC: 1.7313
EPOCH ENDS
EPOCH STARTS
TH0 ROB: 4 LSQ: 2 IQ: 0 IPC: 0.0521
TH1 ROB: 4 LSQ: 2 IQ: 0, IPC: 0.6130
TH2 ROB: 4 LSQ: 1 IQ: 0, IPC: 0.0476
TH3 ROB: 106 LSQ: 64 IQ: 96, IPC: 1.7335
EPOCH ENDS
EPOCH STARTS
TH0 ROB: 4 LSQ: 2 IQ: 0 IPC: 0.0519
TH1 ROB: 4 LSQ: 2 IQ: 0, IPC: 0.6112
TH2 ROB: 4 LSQ: 1 IQ: 0, IPC: 0.0475
TH3 ROB: 106 LSQ: 64 IQ: 96, IPC: 1.7358
EPOCH ENDS
EPOCH STARTS
TH0 ROB: 4 LSQ: 2 IQ: 0 IPC: 0.0518
TH1 ROB: 4 LSQ: 2 IQ: 0, IPC: 0.6093
TH2 ROB: 4 LSQ: 1 IQ: 0, IPC: 0.0473
TH3 ROB: 106 LSQ: 64 IQ: 96, IPC: 1.7381
EPOCH ENDS
EPOCH STARTS
TH0 ROB: 4 LSQ: 2 IQ: 0 IPC: 0.0516
TH1 ROB: 4 LSQ: 2 IQ: 0, IPC: 0.6076
TH2 ROB: 4 LSQ: 1 IQ: 0, IPC: 0.0472
TH3 ROB: 106 LSQ: 64 IQ: 96, IPC: 1.7403
EPOCH ENDS
EPOCH STARTS
TH0 ROB: 4 LSQ: 2 IQ: 0 IPC: 0.0515
TH1 ROB: 4 LSQ: 2 IQ: 0, IPC: 0.6058
TH2 ROB: 4 LSQ: 1 IQ: 0, IPC: 0.0471
TH3 ROB: 106 LSQ: 64 IQ: 96, IPC: 1.7425
EPOCH ENDS
EPOCH STARTS
TH0 ROB: 4 LSQ: 2 IQ: 0 IPC: 0.0513
TH1 ROB: 4 LSQ: 2 IQ: 0, IPC: 0.6040
TH2 ROB: 4 LSQ: 1 IQ: 0, IPC: 0.0469
TH3 ROB: 106 LSQ: 64 IQ: 96, IPC: 1.7448
EPOCH ENDS
EPOCH STARTS
TH0 ROB: 4 LSQ: 2 IQ: 0 IPC: 0.0512
TH1 ROB: 4 LSQ: 2 IQ: 0, IPC: 0.6022
TH2 ROB: 4 LSQ: 1 IQ: 0, IPC: 0.0468
TH3 ROB: 106 LSQ: 64 IQ: 96, IPC: 1.7470
EPOCH ENDS
EPOCH STARTS
TH0 ROB: 4 LSQ: 2 IQ: 0 IPC: 0.0510
TH1 ROB: 4 LSQ: 2 IQ: 0, IPC: 0.6005
TH2 ROB: 4 LSQ: 1 IQ: 0, IPC: 0.0466
TH3 ROB: 106 LSQ: 64 IQ: 96, IPC: 1.7491
EPOCH ENDS
EPOCH STARTS
TH0 ROB: 4 LSQ: 2 IQ: 0 IPC: 0.0509
TH1 ROB: 4 LSQ: 2 IQ: 0, IPC: 0.5988
TH2 ROB: 4 LSQ: 1 IQ: 0, IPC: 0.0465
TH3 ROB: 106 LSQ: 64 IQ: 96, IPC: 1.7513
EPOCH ENDS
EPOCH STARTS
TH0 ROB: 4 LSQ: 2 IQ: 0 IPC: 0.0507
TH1 ROB: 4 LSQ: 2 IQ: 0, IPC: 0.5970
TH2 ROB: 4 LSQ: 1 IQ: 0, IPC: 0.0464
TH3 ROB: 106 LSQ: 64 IQ: 96, IPC: 1.7535
EPOCH ENDS
EPOCH STARTS
TH0 ROB: 4 LSQ: 2 IQ: 0 IPC: 0.0506
TH1 ROB: 4 LSQ: 2 IQ: 0, IPC: 0.5953
TH2 ROB: 4 LSQ: 1 IQ: 0, IPC: 0.0462
TH3 ROB: 106 LSQ: 64 IQ: 96, IPC: 1.7556
EPOCH ENDS
EPOCH STARTS
TH0 ROB: 4 LSQ: 2 IQ: 0 IPC: 0.0505
TH1 ROB: 4 LSQ: 2 IQ: 0, IPC: 0.5936
TH2 ROB: 4 LSQ: 1 IQ: 0, IPC: 0.0461
TH3 ROB: 106 LSQ: 64 IQ: 96, IPC: 1.7578
EPOCH ENDS
EPOCH STARTS
TH0 ROB: 4 LSQ: 2 IQ: 0 IPC: 0.0503
TH1 ROB: 4 LSQ: 2 IQ: 0, IPC: 0.5919
TH2 ROB: 4 LSQ: 1 IQ: 0, IPC: 0.0460
TH3 ROB: 106 LSQ: 64 IQ: 96, IPC: 1.7599
EPOCH ENDS
EPOCH STARTS
TH0 ROB: 4 LSQ: 2 IQ: 0 IPC: 0.0502
TH1 ROB: 4 LSQ: 2 IQ: 0, IPC: 0.5902
TH2 ROB: 4 LSQ: 1 IQ: 0, IPC: 0.0458
TH3 ROB: 106 LSQ: 64 IQ: 96, IPC: 1.7620
EPOCH ENDS
EPOCH STARTS
TH0 ROB: 4 LSQ: 2 IQ: 0 IPC: 0.0500
TH1 ROB: 4 LSQ: 2 IQ: 0, IPC: 0.5885
TH2 ROB: 4 LSQ: 1 IQ: 0, IPC: 0.0457
TH3 ROB: 106 LSQ: 64 IQ: 96, IPC: 1.7641
EPOCH ENDS
EPOCH STARTS
TH0 ROB: 4 LSQ: 2 IQ: 0 IPC: 0.0499
TH1 ROB: 4 LSQ: 2 IQ: 0, IPC: 0.5868
TH2 ROB: 4 LSQ: 1 IQ: 0, IPC: 0.0456
TH3 ROB: 106 LSQ: 64 IQ: 96, IPC: 1.7662
EPOCH ENDS
EPOCH STARTS
TH0 ROB: 4 LSQ: 2 IQ: 0 IPC: 0.0497
TH1 ROB: 4 LSQ: 2 IQ: 0, IPC: 0.5852
TH2 ROB: 4 LSQ: 1 IQ: 0, IPC: 0.0455
TH3 ROB: 106 LSQ: 64 IQ: 96, IPC: 1.7683
EPOCH ENDS
EPOCH STARTS
TH0 ROB: 4 LSQ: 2 IQ: 0 IPC: 0.0496
TH1 ROB: 4 LSQ: 2 IQ: 0, IPC: 0.5835
TH2 ROB: 4 LSQ: 1 IQ: 0, IPC: 0.0453
TH3 ROB: 106 LSQ: 64 IQ: 96, IPC: 1.7704
EPOCH ENDS
EPOCH STARTS
TH0 ROB: 4 LSQ: 2 IQ: 0 IPC: 0.0495
TH1 ROB: 4 LSQ: 2 IQ: 0, IPC: 0.5819
TH2 ROB: 4 LSQ: 1 IQ: 0, IPC: 0.0452
TH3 ROB: 106 LSQ: 64 IQ: 96, IPC: 1.7724
EPOCH ENDS
EPOCH STARTS
TH0 ROB: 4 LSQ: 2 IQ: 0 IPC: 0.0493
TH1 ROB: 4 LSQ: 2 IQ: 0, IPC: 0.5803
TH2 ROB: 4 LSQ: 1 IQ: 0, IPC: 0.0451
TH3 ROB: 106 LSQ: 64 IQ: 96, IPC: 1.7745
EPOCH ENDS
EPOCH STARTS
TH0 ROB: 4 LSQ: 2 IQ: 0 IPC: 0.0492
TH1 ROB: 4 LSQ: 2 IQ: 0, IPC: 0.5786
TH2 ROB: 4 LSQ: 1 IQ: 0, IPC: 0.0449
TH3 ROB: 106 LSQ: 64 IQ: 96, IPC: 1.7765
EPOCH ENDS
EPOCH STARTS
TH0 ROB: 4 LSQ: 2 IQ: 0 IPC: 0.0490
TH1 ROB: 4 LSQ: 2 IQ: 0, IPC: 0.5770
TH2 ROB: 4 LSQ: 1 IQ: 0, IPC: 0.0448
TH3 ROB: 106 LSQ: 64 IQ: 96, IPC: 1.7785
EPOCH ENDS
EPOCH STARTS
TH0 ROB: 4 LSQ: 2 IQ: 0 IPC: 0.0489
TH1 ROB: 4 LSQ: 2 IQ: 0, IPC: 0.5754
TH2 ROB: 4 LSQ: 1 IQ: 0, IPC: 0.0447
TH3 ROB: 106 LSQ: 64 IQ: 96, IPC: 1.7805
EPOCH ENDS
EPOCH STARTS
TH0 ROB: 4 LSQ: 2 IQ: 0 IPC: 0.0488
TH1 ROB: 4 LSQ: 2 IQ: 0, IPC: 0.5738
TH2 ROB: 4 LSQ: 1 IQ: 0, IPC: 0.0446
TH3 ROB: 106 LSQ: 64 IQ: 96, IPC: 1.7825
EPOCH ENDS
EPOCH STARTS
TH0 ROB: 4 LSQ: 2 IQ: 0 IPC: 0.0486
TH1 ROB: 4 LSQ: 2 IQ: 0, IPC: 0.5722
TH2 ROB: 4 LSQ: 1 IQ: 0, IPC: 0.0444
TH3 ROB: 106 LSQ: 64 IQ: 96, IPC: 1.7845
EPOCH ENDS
EPOCH STARTS
TH0 ROB: 4 LSQ: 2 IQ: 0 IPC: 0.0485
TH1 ROB: 4 LSQ: 2 IQ: 0, IPC: 0.5706
TH2 ROB: 4 LSQ: 1 IQ: 0, IPC: 0.0443
TH3 ROB: 106 LSQ: 64 IQ: 96, IPC: 1.7865
EPOCH ENDS
EPOCH STARTS
TH0 ROB: 4 LSQ: 2 IQ: 0 IPC: 0.0484
TH1 ROB: 4 LSQ: 2 IQ: 0, IPC: 0.5691
TH2 ROB: 4 LSQ: 1 IQ: 0, IPC: 0.0442
TH3 ROB: 106 LSQ: 64 IQ: 96, IPC: 1.7884
EPOCH ENDS
EPOCH STARTS
TH0 ROB: 4 LSQ: 2 IQ: 0 IPC: 0.0482
TH1 ROB: 4 LSQ: 2 IQ: 0, IPC: 0.5675
TH2 ROB: 4 LSQ: 1 IQ: 0, IPC: 0.0441
TH3 ROB: 106 LSQ: 64 IQ: 96, IPC: 1.7904
EPOCH ENDS
EPOCH STARTS
TH0 ROB: 4 LSQ: 2 IQ: 0 IPC: 0.0481
TH1 ROB: 4 LSQ: 2 IQ: 0, IPC: 0.5659
TH2 ROB: 4 LSQ: 1 IQ: 0, IPC: 0.0440
TH3 ROB: 106 LSQ: 64 IQ: 96, IPC: 1.7923
EPOCH ENDS
EPOCH STARTS
TH0 ROB: 4 LSQ: 2 IQ: 0 IPC: 0.0480
TH1 ROB: 4 LSQ: 2 IQ: 0, IPC: 0.5644
TH2 ROB: 4 LSQ: 1 IQ: 0, IPC: 0.0438
TH3 ROB: 106 LSQ: 64 IQ: 96, IPC: 1.7943
EPOCH ENDS
EPOCH STARTS
TH0 ROB: 4 LSQ: 2 IQ: 0 IPC: 0.0478
TH1 ROB: 4 LSQ: 2 IQ: 0, IPC: 0.5629
TH2 ROB: 4 LSQ: 1 IQ: 0, IPC: 0.0437
TH3 ROB: 106 LSQ: 64 IQ: 96, IPC: 1.7962
EPOCH ENDS
EPOCH STARTS
TH0 ROB: 4 LSQ: 2 IQ: 0 IPC: 0.0477
TH1 ROB: 4 LSQ: 2 IQ: 0, IPC: 0.5613
TH2 ROB: 4 LSQ: 1 IQ: 0, IPC: 0.0436
TH3 ROB: 106 LSQ: 64 IQ: 96, IPC: 1.7981
EPOCH ENDS
EPOCH STARTS
TH0 ROB: 4 LSQ: 2 IQ: 0 IPC: 0.0476
TH1 ROB: 4 LSQ: 2 IQ: 0, IPC: 0.5598
TH2 ROB: 4 LSQ: 1 IQ: 0, IPC: 0.0435
TH3 ROB: 106 LSQ: 64 IQ: 96, IPC: 1.8000
EPOCH ENDS
EPOCH STARTS
TH0 ROB: 4 LSQ: 2 IQ: 0 IPC: 0.0475
TH1 ROB: 4 LSQ: 2 IQ: 0, IPC: 0.5583
TH2 ROB: 4 LSQ: 1 IQ: 0, IPC: 0.0434
TH3 ROB: 106 LSQ: 64 IQ: 96, IPC: 1.8019
EPOCH ENDS
EPOCH STARTS
TH0 ROB: 4 LSQ: 2 IQ: 0 IPC: 0.0473
TH1 ROB: 4 LSQ: 2 IQ: 0, IPC: 0.5568
TH2 ROB: 4 LSQ: 1 IQ: 0, IPC: 0.0432
TH3 ROB: 106 LSQ: 64 IQ: 96, IPC: 1.8038
EPOCH ENDS
EPOCH STARTS
TH0 ROB: 4 LSQ: 2 IQ: 0 IPC: 0.0472
TH1 ROB: 4 LSQ: 2 IQ: 0, IPC: 0.5553
TH2 ROB: 4 LSQ: 1 IQ: 0, IPC: 0.0431
TH3 ROB: 106 LSQ: 64 IQ: 96, IPC: 1.8057
EPOCH ENDS
EPOCH STARTS
TH0 ROB: 4 LSQ: 2 IQ: 0 IPC: 0.0471
TH1 ROB: 4 LSQ: 2 IQ: 0, IPC: 0.5538
TH2 ROB: 4 LSQ: 1 IQ: 0, IPC: 0.0430
TH3 ROB: 106 LSQ: 64 IQ: 96, IPC: 1.8075
EPOCH ENDS
EPOCH STARTS
TH0 ROB: 4 LSQ: 2 IQ: 0 IPC: 0.0469
TH1 ROB: 4 LSQ: 2 IQ: 0, IPC: 0.5523
TH2 ROB: 4 LSQ: 1 IQ: 0, IPC: 0.0429
TH3 ROB: 106 LSQ: 64 IQ: 96, IPC: 1.8094
EPOCH ENDS
EPOCH STARTS
TH0 ROB: 4 LSQ: 2 IQ: 0 IPC: 0.0468
TH1 ROB: 4 LSQ: 2 IQ: 0, IPC: 0.5509
TH2 ROB: 4 LSQ: 1 IQ: 0, IPC: 0.0428
TH3 ROB: 106 LSQ: 64 IQ: 96, IPC: 1.8112
EPOCH ENDS
EPOCH STARTS
TH0 ROB: 4 LSQ: 2 IQ: 0 IPC: 0.0467
TH1 ROB: 4 LSQ: 2 IQ: 0, IPC: 0.5494
TH2 ROB: 4 LSQ: 1 IQ: 0, IPC: 0.0427
TH3 ROB: 106 LSQ: 64 IQ: 96, IPC: 1.8130
EPOCH ENDS
EPOCH STARTS
TH0 ROB: 4 LSQ: 2 IQ: 0 IPC: 0.0466
TH1 ROB: 4 LSQ: 2 IQ: 0, IPC: 0.5479
TH2 ROB: 4 LSQ: 1 IQ: 0, IPC: 0.0426
TH3 ROB: 106 LSQ: 64 IQ: 96, IPC: 1.8149
EPOCH ENDS
EPOCH STARTS
TH0 ROB: 4 LSQ: 2 IQ: 0 IPC: 0.0464
TH1 ROB: 4 LSQ: 2 IQ: 0, IPC: 0.5465
TH2 ROB: 4 LSQ: 1 IQ: 0, IPC: 0.0424
TH3 ROB: 106 LSQ: 64 IQ: 96, IPC: 1.8167
EPOCH ENDS
EPOCH STARTS
TH0 ROB: 4 LSQ: 2 IQ: 0 IPC: 0.0463
TH1 ROB: 4 LSQ: 2 IQ: 0, IPC: 0.5450
TH2 ROB: 4 LSQ: 1 IQ: 0, IPC: 0.0423
TH3 ROB: 106 LSQ: 64 IQ: 96, IPC: 1.8185
EPOCH ENDS
EPOCH STARTS
TH0 ROB: 4 LSQ: 2 IQ: 0 IPC: 0.0462
TH1 ROB: 4 LSQ: 2 IQ: 0, IPC: 0.5436
TH2 ROB: 4 LSQ: 1 IQ: 0, IPC: 0.0422
TH3 ROB: 106 LSQ: 64 IQ: 96, IPC: 1.8203
EPOCH ENDS
EPOCH STARTS
TH0 ROB: 4 LSQ: 2 IQ: 0 IPC: 0.0461
TH1 ROB: 4 LSQ: 2 IQ: 0, IPC: 0.5422
TH2 ROB: 4 LSQ: 1 IQ: 0, IPC: 0.0421
TH3 ROB: 106 LSQ: 64 IQ: 96, IPC: 1.8221
EPOCH ENDS
EPOCH STARTS
TH0 ROB: 4 LSQ: 2 IQ: 0 IPC: 0.0460
TH1 ROB: 4 LSQ: 2 IQ: 0, IPC: 0.5408
TH2 ROB: 4 LSQ: 1 IQ: 0, IPC: 0.0420
TH3 ROB: 106 LSQ: 64 IQ: 96, IPC: 1.8238
EPOCH ENDS
EPOCH STARTS
TH0 ROB: 4 LSQ: 2 IQ: 0 IPC: 0.0458
TH1 ROB: 4 LSQ: 2 IQ: 0, IPC: 0.5393
TH2 ROB: 4 LSQ: 1 IQ: 0, IPC: 0.0419
TH3 ROB: 106 LSQ: 64 IQ: 96, IPC: 1.8256
EPOCH ENDS
EPOCH STARTS
TH0 ROB: 4 LSQ: 2 IQ: 0 IPC: 0.0457
TH1 ROB: 4 LSQ: 2 IQ: 0, IPC: 0.5379
TH2 ROB: 4 LSQ: 1 IQ: 0, IPC: 0.0418
TH3 ROB: 106 LSQ: 64 IQ: 96, IPC: 1.8274
EPOCH ENDS
EPOCH STARTS
TH0 ROB: 4 LSQ: 2 IQ: 0 IPC: 0.0456
TH1 ROB: 4 LSQ: 2 IQ: 0, IPC: 0.5365
TH2 ROB: 4 LSQ: 1 IQ: 0, IPC: 0.0417
TH3 ROB: 106 LSQ: 64 IQ: 96, IPC: 1.8291
EPOCH ENDS
EPOCH STARTS
TH0 ROB: 4 LSQ: 2 IQ: 0 IPC: 0.0455
TH1 ROB: 4 LSQ: 2 IQ: 0, IPC: 0.5352
TH2 ROB: 4 LSQ: 1 IQ: 0, IPC: 0.0416
TH3 ROB: 106 LSQ: 64 IQ: 96, IPC: 1.8308
EPOCH ENDS
EPOCH STARTS
TH0 ROB: 4 LSQ: 2 IQ: 0 IPC: 0.0454
TH1 ROB: 4 LSQ: 2 IQ: 0, IPC: 0.5338
TH2 ROB: 4 LSQ: 1 IQ: 0, IPC: 0.0415
TH3 ROB: 106 LSQ: 64 IQ: 96, IPC: 1.8326
EPOCH ENDS
EPOCH STARTS
TH0 ROB: 4 LSQ: 2 IQ: 0 IPC: 0.0452
TH1 ROB: 4 LSQ: 2 IQ: 0, IPC: 0.5324
TH2 ROB: 4 LSQ: 1 IQ: 0, IPC: 0.0414
TH3 ROB: 106 LSQ: 64 IQ: 96, IPC: 1.8343
EPOCH ENDS
EPOCH STARTS
TH0 ROB: 4 LSQ: 2 IQ: 0 IPC: 0.0451
TH1 ROB: 4 LSQ: 2 IQ: 0, IPC: 0.5310
TH2 ROB: 4 LSQ: 1 IQ: 0, IPC: 0.0412
TH3 ROB: 106 LSQ: 64 IQ: 96, IPC: 1.8360
EPOCH ENDS
EPOCH STARTS
TH0 ROB: 4 LSQ: 2 IQ: 0 IPC: 0.0450
TH1 ROB: 4 LSQ: 2 IQ: 0, IPC: 0.5297
TH2 ROB: 4 LSQ: 1 IQ: 0, IPC: 0.0411
TH3 ROB: 106 LSQ: 64 IQ: 96, IPC: 1.8377
EPOCH ENDS
EPOCH STARTS
TH0 ROB: 4 LSQ: 2 IQ: 0 IPC: 0.0449
TH1 ROB: 4 LSQ: 2 IQ: 0, IPC: 0.5283
TH2 ROB: 4 LSQ: 1 IQ: 0, IPC: 0.0410
TH3 ROB: 106 LSQ: 64 IQ: 96, IPC: 1.8394
EPOCH ENDS
EPOCH STARTS
TH0 ROB: 4 LSQ: 2 IQ: 0 IPC: 0.0448
TH1 ROB: 4 LSQ: 2 IQ: 0, IPC: 0.5270
TH2 ROB: 4 LSQ: 1 IQ: 0, IPC: 0.0409
TH3 ROB: 106 LSQ: 64 IQ: 96, IPC: 1.8411
EPOCH ENDS
EPOCH STARTS
TH0 ROB: 4 LSQ: 2 IQ: 0 IPC: 0.0447
TH1 ROB: 4 LSQ: 2 IQ: 0, IPC: 0.5256
TH2 ROB: 4 LSQ: 1 IQ: 0, IPC: 0.0408
[...]
Thread_3_cpred_bimod.retstack_pops            0 # total number of address popped off of ret-addr stack
Thread_3_cpred_bimod.used_ras.PP            0 # total number of RAS predictions used
Thread_3_cpred_bimod.ras_hits.PP            0 # total number of RAS hits
Thread_3_cpred_bimod.ras_rate.PP <error: divide by zero> # RAS prediction rate (i.e., RAS hits/used RAS)
il1.accesses              624695342 # total number of accesses
il1.hits                  624694521 # total number of hits
il1.misses                      821 # total number of misses
il1.replacements                821 # total number of replacements
il1.writebacks                    0 # total number of writebacks
il1.invalidations                 0 # total number of invalidations
il1.miss_rate                0.0000 # miss rate (i.e., misses/ref)
il1.repl_rate                0.0000 # replacement rate (i.e., repls/ref)
il1.wb_rate                  0.0000 # writeback rate (i.e., wrbks/ref)
il1.inv_rate                 0.0000 # invalidation rate (i.e., invs/ref)
dl1.accesses              251770395 # total number of accesses
dl1.hits                  251428422 # total number of hits
dl1.misses                   341973 # total number of misses
dl1.replacements             341973 # total number of replacements
dl1.writebacks               341205 # total number of writebacks
dl1.invalidations                 0 # total number of invalidations
dl1.miss_rate                0.0014 # miss rate (i.e., misses/ref)
dl1.repl_rate                0.0014 # replacement rate (i.e., repls/ref)
dl1.wb_rate                  0.0014 # writeback rate (i.e., wrbks/ref)
dl1.inv_rate                 0.0000 # invalidation rate (i.e., invs/ref)
ul2.accesses                 683999 # total number of accesses
ul2.hits                     511882 # total number of hits
ul2.misses                   172117 # total number of misses
ul2.replacements             172117 # total number of replacements
ul2.writebacks               171788 # total number of writebacks
ul2.invalidations                 0 # total number of invalidations
ul2.miss_rate                0.2516 # miss rate (i.e., misses/ref)
ul2.repl_rate                0.2516 # replacement rate (i.e., repls/ref)
ul2.wb_rate                  0.2512 # writeback rate (i.e., wrbks/ref)
ul2.inv_rate                 0.0000 # invalidation rate (i.e., invs/ref)
itlb.accesses             624695342 # total number of accesses
itlb.hits                 624695326 # total number of hits
itlb.misses                      16 # total number of misses
itlb.replacements                16 # total number of replacements
itlb.writebacks                   0 # total number of writebacks
itlb.invalidations                0 # total number of invalidations
itlb.miss_rate               0.0000 # miss rate (i.e., misses/ref)
itlb.repl_rate               0.0000 # replacement rate (i.e., repls/ref)
itlb.wb_rate                 0.0000 # writeback rate (i.e., wrbks/ref)
itlb.inv_rate                0.0000 # invalidation rate (i.e., invs/ref)
dtlb.accesses             375426852 # total number of accesses
dtlb.hits                 375423108 # total number of hits
dtlb.misses                    3744 # total number of misses
dtlb.replacements              3744 # total number of replacements
dtlb.writebacks                   0 # total number of writebacks
dtlb.invalidations                0 # total number of invalidations
dtlb.miss_rate               0.0000 # miss rate (i.e., misses/ref)
dtlb.repl_rate               0.0000 # replacement rate (i.e., repls/ref)
dtlb.wb_rate                 0.0000 # writeback rate (i.e., wrbks/ref)
dtlb.inv_rate                0.0000 # invalidation rate (i.e., invs/ref)
sim_invalid_addrs                 0 # total non-speculative bogus addresses seen (debug var)
ld_text_base           0x0120000000 # program text (code) segment base
mem->ld_text_size            589824 # program text (code) size in bytes
mem->ld_data_base      0x0140000000 # program initialized data segment base
mem->ld_data_size            179872 # program init'ed `.data' and uninit'ed `.bss' size in bytes
mem->ld_stack_base     0x011ff9b000 # program stack segment base (highest address in stack)
mem->ld_stack_size            16384 # program initial stack size
mem->ld_prog_entry     0x0120000300 # program entry point (initial PC)
mem->ld_environ_base   0x011ff97000 # program environment base address address
mem->ld_target_big_endian            0 # target executable endian-ness, non-zero if big endian
mem_0.page_count                106 # total number of pages allocated
mem_0.page_mem                 848k # total size of memory pages allocated
mem_0.ptab_misses              2563 # total first level page table misses
mem_0.ptab_accesses        64167284 # total page table accesses
mem_0.ptab_miss_rate         0.0000 # first level page table miss rate
ld_text_base           0x0120000000 # program text (code) segment base
mem->ld_text_size            401408 # program text (code) size in bytes
mem->ld_data_base      0x0140000000 # program initialized data segment base
mem->ld_data_size             70816 # program init'ed `.data' and uninit'ed `.bss' size in bytes
mem->ld_stack_base     0x011ff9b000 # program stack segment base (highest address in stack)
mem->ld_stack_size            16384 # program initial stack size
mem->ld_prog_entry     0x012000ff40 # program entry point (initial PC)
mem->ld_environ_base   0x011ff97000 # program environment base address address
mem->ld_target_big_endian            0 # target executable endian-ness, non-zero if big endian
mem_0.page_count               4157 # total number of pages allocated
mem_0.page_mem                 848k # total size of memory pages allocated
mem_0.ptab_misses              6329 # total first level page table misses
mem_0.ptab_accesses       225896400 # total page table accesses
mem_0.ptab_miss_rate         0.0000 # first level page table miss rate
ld_text_base           0x0120000000 # program text (code) segment base
mem->ld_text_size            974848 # program text (code) size in bytes
mem->ld_data_base      0x0140000000 # program initialized data segment base
mem->ld_data_size             79184 # program init'ed `.data' and uninit'ed `.bss' size in bytes
mem->ld_stack_base     0x011ff9b000 # program stack segment base (highest address in stack)
mem->ld_stack_size            16384 # program initial stack size
mem->ld_prog_entry     0x0120015580 # program entry point (initial PC)
mem->ld_environ_base   0x011ff97000 # program environment base address address
mem->ld_target_big_endian            0 # target executable endian-ness, non-zero if big endian
mem_0.page_count                162 # total number of pages allocated
mem_0.page_mem                 848k # total size of memory pages allocated
mem_0.ptab_misses             34413 # total first level page table misses
mem_0.ptab_accesses        75083624 # total page table accesses
mem_0.ptab_miss_rate         0.0000 # first level page table miss rate
ld_text_base           0x0120000000 # program text (code) segment base
mem->ld_text_size           2285568 # program text (code) size in bytes
mem->ld_data_base      0x0140000000 # program initialized data segment base
mem->ld_data_size            152368 # program init'ed `.data' and uninit'ed `.bss' size in bytes
mem->ld_stack_base     0x011ff9b000 # program stack segment base (highest address in stack)
mem->ld_stack_size            16384 # program initial stack size
mem->ld_prog_entry     0x01200b9a00 # program entry point (initial PC)
mem->ld_environ_base   0x011ff97000 # program environment base address address
mem->ld_target_big_endian            0 # target executable endian-ness, non-zero if big endian
mem_0.page_count                300 # total number of pages allocated
mem_0.page_mem                 848k # total size of memory pages allocated
mem_0.ptab_misses               359 # total first level page table misses
mem_0.ptab_accesses      7295829346 # total page table accesses
mem_0.ptab_miss_rate         0.0000 # first level page table miss rate
rename_power           170831330.8521 # total power usage of rename unit
bpred_power            1130781596.2667 # total power usage of bpred unit
window_power           3569047442.0555 # total power usage of instruction window
lsq_power              1992927240.4008 # total power usage of load/store queue
regfile_power          893118024.3201 # total power usage of arch. regfile
icache_power           1058450497.7872 # total power usage of icache
dcache_power           2311943843.8834 # total power usage of dcache
dcache2_power          1300033981.9295 # total power usage of dcache2
alu_power              4735293863.5147 # total power usage of alu
falu_power             3570261239.8660 # total power usage of falu
resultbus_power        2253231538.7770 # total power usage of resultbus
clock_power            7621587330.2502 # total power usage of clock
avg_rename_power             0.6833 # avg power usage of rename unit
avg_bpred_power              4.5231 # avg power usage of bpred unit
avg_window_power            14.2762 # avg power usage of instruction window
avg_lsq_power                7.9717 # avg power usage of lsq
avg_regfile_power            3.5725 # avg power usage of arch. regfile
avg_icache_power             4.2338 # avg power usage of icache
avg_dcache_power             9.2478 # avg power usage of dcache
avg_dcache2_power            5.2001 # avg power usage of dcache2
avg_alu_power               18.9412 # avg power usage of alu
avg_falu_power              14.2810 # avg power usage of falu
avg_resultbus_power          9.0129 # avg power usage of resultbus
avg_clock_power             30.4863 # avg power usage of clock
fetch_stage_power      2189232094.0540 # total power usage of fetch stage
dispatch_stage_power   170831330.8521 # total power usage of dispatch stage
issue_stage_power      16162477910.5610 # total power usage of issue stage
avg_fetch_power              8.7569 # average power of fetch unit per cycle
avg_dispatch_power           0.6833 # average power of dispatch unit per cycle
avg_issue_power             64.6499 # average power of issue unit per cycle
total_power            27037246690.0374 # total power per cycle
avg_total_power_cycle      108.1490 # average total power per cycle
avg_total_power_cycle_nofp_nod2      88.6678 # average total power per cycle
avg_total_power_insn        43.2828 # average total power per insn
avg_total_power_insn_nofp_nod2      35.4861 # average total power per insn
rename_power_cc1       170813181.0483 # total power usage of rename unit_cc1
bpred_power_cc1        560847725.1849 # total power usage of bpred unit_cc1
window_power_cc1       4086374688.1589 # total power usage of instruction window_cc1
lsq_power_cc1          1666656496.0751 # total power usage of lsq_cc1
regfile_power_cc1      859312029.8947 # total power usage of arch. regfile_cc1
icache_power_cc1       1058180927.3826 # total power usage of icache_cc1
dcache_power_cc1       1169016883.2138 # total power usage of dcache_cc1
dcache2_power_cc1      1782523.3889 # total power usage of dcache2_cc1
alu_power_cc1          1166191182.0725 # total power usage of alu_cc1
resultbus_power_cc1    2250805158.8606 # total power usage of resultbus_cc1
clock_power_cc1        5465639069.5533 # total power usage of clock_cc1
avg_rename_power_cc1         0.6833 # avg power usage of rename unit_cc1
avg_bpred_power_cc1          2.2434 # avg power usage of bpred unit_cc1
avg_window_power_cc1        16.3455 # avg power usage of instruction window_cc1
avg_lsq_power_cc1            6.6666 # avg power usage of lsq_cc1
avg_regfile_power_cc1        3.4372 # avg power usage of arch. regfile_cc1
avg_icache_power_cc1         4.2327 # avg power usage of icache_cc1
avg_dcache_power_cc1         4.6761 # avg power usage of dcache_cc1
avg_dcache2_power_cc1        0.0071 # avg power usage of dcache2_cc1
avg_alu_power_cc1            4.6648 # avg power usage of alu_cc1
avg_resultbus_power_cc1       9.0032 # avg power usage of resultbus_cc1
avg_clock_power_cc1         21.8626 # avg power usage of clock_cc1
fetch_stage_power_cc1  1619028652.5674 # total power usage of fetch stage_cc1
dispatch_stage_power_cc1 170813181.0483 # total power usage of dispatch stage_cc1
issue_stage_power_cc1  10340826931.7697 # total power usage of issue stage_cc1
avg_fetch_power_cc1          6.4761 # average power of fetch unit per cycle_cc1
avg_dispatch_power_cc1       0.6833 # average power of dispatch unit per cycle_cc1
avg_issue_power_cc1         41.3633 # average power of issue unit per cycle_cc1
total_power_cycle_cc1  18455619864.8336 # total power per cycle_cc1
avg_total_power_cycle_cc1      73.8225 # average total power per cycle_cc1
avg_total_power_insn_cc1      29.5448 # average total power per insn_cc1
rename_power_cc2       106712395.9924 # total power usage of rename unit_cc2
bpred_power_cc2        280479238.0977 # total power usage of bpred unit_cc2
window_power_cc2       4012300514.7163 # total power usage of instruction window_cc2
lsq_power_cc2          834554196.8727 # total power usage of lsq_cc2
regfile_power_cc2      143355004.8630 # total power usage of arch. regfile_cc2
icache_power_cc2       1058180927.3826 # total power usage of icache_cc2
dcache_power_cc2       1164158032.7049 # total power usage of dcache_cc2
dcache2_power_cc2      1778443.8823 # total power usage of dcache2_cc2
alu_power_cc2          727681040.1027 # total power usage of alu_cc2
resultbus_power_cc2    1689676601.3156 # total power usage of resultbus_cc2
clock_power_cc2        4216705518.0346 # total power usage of clock_cc2
avg_rename_power_cc2         0.4268 # avg power usage of rename unit_cc2
avg_bpred_power_cc2          1.1219 # avg power usage of bpred unit_cc2
avg_window_power_cc2        16.0492 # avg power usage of instruction window_cc2
avg_lsq_power_cc2            3.3382 # avg power usage of instruction lsq_cc2
avg_regfile_power_cc2        0.5734 # avg power usage of arch. regfile_cc2
avg_icache_power_cc2         4.2327 # avg power usage of icache_cc2
avg_dcache_power_cc2         4.6566 # avg power usage of dcache_cc2
avg_dcache2_power_cc2        0.0071 # avg power usage of dcache2_cc2
avg_alu_power_cc2            2.9107 # avg power usage of alu_cc2
avg_resultbus_power_cc2       6.7587 # avg power usage of resultbus_cc2
avg_clock_power_cc2         16.8668 # avg power usage of clock_cc2
fetch_stage_power_cc2  1338660165.4803 # total power usage of fetch stage_cc2
dispatch_stage_power_cc2 106712395.9924 # total power usage of dispatch stage_cc2
issue_stage_power_cc2  8430148829.5944 # total power usage of issue stage_cc2
avg_fetch_power_cc2          5.3546 # average power of fetch unit per cycle_cc2
avg_dispatch_power_cc2       0.4268 # average power of dispatch unit per cycle_cc2
avg_issue_power_cc2         33.7206 # average power of issue unit per cycle_cc2
total_power_cycle_cc2  14235581913.9647 # total power per cycle_cc2
avg_total_power_cycle_cc2      56.9423 # average total power per cycle_cc2
avg_total_power_insn_cc2      22.7891 # average total power per insn_cc2
rename_power_cc3       106714210.9728 # total power usage of rename unit_cc3
bpred_power_cc3        337473058.3194 # total power usage of bpred unit_cc3
window_power_cc3       4012302634.1804 # total power usage of instruction window_cc3
lsq_power_cc3          867179202.6159 # total power usage of lsq_cc3
regfile_power_cc3      143383099.4986 # total power usage of arch. regfile_cc3
icache_power_cc3       1058207884.4230 # total power usage of icache_cc3
dcache_power_cc3       1278616487.5743 # total power usage of dcache_cc3
dcache2_power_cc3      131603621.6101 # total power usage of dcache2_cc3
alu_power_cc3          1084591313.4786 # total power usage of alu_cc3
resultbus_power_cc3    1689680131.6787 # total power usage of resultbus_cc3
clock_power_cc3        4451410893.2507 # total power usage of clock_cc3
avg_rename_power_cc3         0.4269 # avg power usage of rename unit_cc3
avg_bpred_power_cc3          1.3499 # avg power usage of bpred unit_cc3
avg_window_power_cc3        16.0492 # avg power usage of instruction window_cc3
avg_lsq_power_cc3            3.4687 # avg power usage of instruction lsq_cc3
avg_regfile_power_cc3        0.5735 # avg power usage of arch. regfile_cc3
avg_icache_power_cc3         4.2328 # avg power usage of icache_cc3
avg_dcache_power_cc3         5.1145 # avg power usage of dcache_cc3
avg_dcache2_power_cc3        0.5264 # avg power usage of dcache2_cc3
avg_alu_power_cc3            4.3384 # avg power usage of alu_cc3
avg_resultbus_power_cc3       6.7587 # avg power usage of resultbus_cc3
avg_clock_power_cc3         17.8056 # avg power usage of clock_cc3
fetch_stage_power_cc3  1395680942.7424 # total power usage of fetch stage_cc3
dispatch_stage_power_cc3 106714210.9728 # total power usage of dispatch stage_cc3
issue_stage_power_cc3  9063973391.1380 # total power usage of issue stage_cc3
avg_fetch_power_cc3          5.5827 # average power of fetch unit per cycle_cc3
avg_dispatch_power_cc3       0.4269 # average power of dispatch unit per cycle_cc3
avg_issue_power_cc3         36.2559 # average power of issue unit per cycle_cc3
total_power_cycle_cc3  15161162537.6025 # total power per cycle_cc3
avg_total_power_cycle_cc3      60.6447 # average total power per cycle_cc3
avg_total_power_insn_cc3      24.2709 # average total power per insn_cc3
total_rename_access       624665247 # total number accesses of rename unit
total_bpred_access        124020075 # total number accesses of bpred unit
total_window_access      2747991931 # total number accesses of instruction window
total_lsq_access          375427391 # total number accesses of load/store queue
total_regfile_access      500358915 # total number accesses of arch. regfile
total_icache_access       624713441 # total number accesses of icache
total_dcache_access       251770395 # total number accesses of dcache
total_dcache2_access         683999 # total number accesses of dcache2
total_alu_access          624396068 # total number accesses of alu
total_resultbus_access    750809840 # total number accesses of resultbus
avg_rename_access            2.4987 # avg number accesses of rename unit
avg_bpred_access             0.4961 # avg number accesses of bpred unit
avg_window_access           10.9920 # avg number accesses of instruction window
avg_lsq_access               1.5017 # avg number accesses of lsq
avg_regfile_access           2.0014 # avg number accesses of arch. regfile
avg_icache_access            2.4989 # avg number accesses of icache
avg_dcache_access            1.0071 # avg number accesses of dcache
avg_dcache2_access           0.0027 # avg number accesses of dcache2
avg_alu_access               2.4976 # avg number accesses of alu
avg_resultbus_access         3.0032 # avg number accesses of resultbus
max_rename_access                 4 # max number accesses of rename unit
max_bpred_access                  5 # max number accesses of bpred unit
max_window_access                30 # max number accesses of instruction window
max_lsq_access                    4 # max number accesses of load/store queue
max_regfile_access               14 # max number accesses of arch. regfile
max_icache_access                 4 # max number accesses of icache
max_dcache_access                 4 # max number accesses of dcache
max_dcache2_access                5 # max number accesses of dcache2
max_alu_access                    4 # max number accesses of alu
max_resultbus_access             19 # max number accesses of resultbus
max_cycle_power_cc1        131.3057 # maximum cycle power usage of cc1
max_cycle_power_cc2        109.3538 # maximum cycle power usage of cc2
max_cycle_power_cc3        110.9078 # maximum cycle power usage of cc3


******* SMT STATS *******
THROUGHPUT IPC: 2.4982

TH0 IPC: 0.0018

TH1 IPC: 0.0207

TH2 IPC: 0.0016

TH3 IPC: 2.4742

