sim-outorder: SimpleScalar/Alpha Tool Set version 3.0 of August, 2003.
Copyright (c) 1994-2003 by Todd M. Austin, Ph.D. and SimpleScalar, LLC.
All Rights Reserved. This version of SimpleScalar is licensed for academic
non-commercial use.  No portion of this work may be used by any commercial
entity, or for any commercial purpose, without the prior written permission
of SimpleScalar, LLC (info@simplescalar.com).


Processor Parameters:
Issue Width: 4
Window Size: 224
Number of Virtual Registers: 32
Number of Physical Registers: 256
Datapath Width: 64
Total Power Consumption: 110.149
Branch Predictor Power Consumption: 4.52313  (4.18%)
 branch target buffer power (W): 4.16837
 local predict power (W): 0.0879711
 global predict power (W): 0.0996078
 chooser power (W): 0.0702439
 RAS power (W): 0.0969383
Rename Logic Power Consumption: 0.683325  (0.632%)
 Instruction Decode Power (W): 0.0159915
 RAT decode_power (W): 0.113514
 RAT wordline_power (W): 0.0493708
 RAT bitline_power (W): 0.493541
 DCL Comparators (W): 0.0109075
Instruction Window Power Consumption: 14.2762  (13.2%)
 tagdrive (W): 0.827064
 tagmatch (W): 0.360565
 Selection Logic (W): 0.0885831
 decode_power (W): 1.16922
 wordline_power (W): 0.0844643
 bitline_power (W): 11.7463
Load/Store Queue Power Consumption: 7.97171  (7.37%)
 tagdrive (W): 3.75392
 tagmatch (W): 1.61238
 decode_power (W): 0.181222
 wordline_power (W): 0.0150119
 bitline_power (W): 2.40917
Arch. Register File Power Consumption: 3.57247  (3.3%)
 decode_power (W): 0.113514
 wordline_power (W): 0.0844643
 bitline_power (W): 3.37449
Result Bus Power Consumption: 9.01293  (8.33%)
Total Clock Power: 30.4863  (28.2%)
Int ALU Power: 4.66013  (4.31%)
FP ALU Power: 14.281  (13.2%)
Instruction Cache Power Consumption: 3.97049  (3.67%)
 decode_power (W): 1.67268
 wordline_power (W): 0.028656
 bitline_power (W): 1.5122
 senseamp_power (W): 0.096
 tagarray_power (W): 0.660946
Itlb_power (W): 0.263317 (0.243%)
Data Cache Power Consumption: 8.34726  (7.72%)
 decode_power (W): 1.44978
 wordline_power (W): 0.196735
 bitline_power (W): 4.58765
 senseamp_power (W): 0.768
 tagarray_power (W): 1.34509
Dtlb_power (W): 0.900515 (0.833%)
Level 2 Cache Power Consumption: 5.20014 (4.81%)
 decode_power (W): 0.41817
 wordline_power (W): 0.0430878
 bitline_power (W): 3.0244
 senseamp_power (W): 0.192
 tagarray_power (W): 1.52247
sim-main: initalizing context 0:hmmerNS.1.arg
args: 0:./hmmer.base.alpha 1:./nph3.hmm 2:./swiss41 
sim: loading binary...
sim: loading ./hmmer.base.alpha
sim-main: initalizing context 1:libquantumNS.1.arg
args: 0:./libquantum.base.alpha 1:1397 2:8 
sim: loading binary...
sim: loading ./libquantum.base.alpha
warning: section `.comment' ignored...
sim-main: initalizing context 2:namdNS.1.arg
args: 0:./namd.base.alpha 1:--input 2:./namd.input 3:--iterations 4:38 5:--output 6:./namd.out 
sim: loading binary...
sim: loading ./namd.base.alpha
warning: section `.comment' ignored...
sim-main: initalizing context 3:zeusmpNS.1.arg
args: 0:./zeusmp.base.alpha 
sim: loading binary...
sim: loading ./zeusmp.base.alpha
sim: command line: ../m-sim_v2.0/sim-outorder hmmerNS.1.arg libquantumNS.1.arg namdNS.1.arg zeusmpNS.1.arg 

sim: simulation started @ Tue Aug  9 15:16:36 2022, options follow:

sim-outorder: This simulator implements a very detailed out-of-order issue
superscalar processor with a two-level memory system and speculative
execution support.  This simulator is a performance simulator, tracking the
latency of all pipeline operations.

# -config                     # load configuration from a file
# -dumpconfig                 # dump configuration to a file
# -h                    false # print help message    
# -v                    false # verbose operation     
# -d                    false # enable debug message  
# -i                    false # start in Dlite debugger
-seed                       1 # random number generator seed (0 for timer seed)
# -q                    false # initialize and terminate immediately
# -redir:sim           <null> # redirect simulator output to file (non-interactive only)
# -redir:prog          <null> # redirect simulated program output to file
-nice                       0 # simulator scheduling priority
-max:inst           250000000 # maximum number of inst's to execute
-fastfwd             10000000 # number of insts skipped before timing starts
# -ptrace              <null> # generate pipetrace, i.e., <fname|stdout|stderr> <range>
-fetch:speed                1 # speed of front-end of machine relative to execution core
-bpred                  bimod # branch predictor type {nottaken|taken|perfect|bimod|2lev|comb}
-bpred:bimod     2048 # bimodal predictor config (<table size>)
-bpred:2lev      1 1024 8 0 # 2-level predictor config (<l1size> <l2size> <hist_size> <xor>)
-bpred:comb      1024 # combining predictor config (<meta_table_size>)
-bpred:ras                  8 # return address stack size (0 for no return stack)
-bpred:btb       512 4 # BTB config (<num_sets> <associativity>)
# -bpred:spec_update       <null> # speculative predictors update in {ID|WB} (default non-spec)
-cpred                  bimod # cache load-latency predictor type {nottaken|taken|perfect|bimod|2lev|comb}
-cpred:bimod     2048 # cache load-latency bimodal predictor config (<table size>)
-cpred:2lev      1 1024 8 0 # cache load-latency 2-level predictor config (<l1size> <l2size> <hist_size> <xor>)
-cpred:comb      1024 # cache load-latency combining predictor config (<meta_table_size>)
-cpred:ras                  0 # return address stack size (0 for no return stack)
-cpred:btb       512 4 # cache load-latency BTB config (<num_sets> <associativity>)
-decode:width               4 # instruction decode B/W (insts/cycle)
-issue:width                4 # instruction issue B/W (insts/cycle)
-issue:inorder          false # run pipeline with in-order issue
-issue:wrongpath         true # issue instructions down wrong execution paths
-commit:width               4 # instruction commit B/W (insts/cycle)
-rob:size                 224 # reorder buffer (ROB) size
-fetch:policy |icount|round_robin|       icount # fetch policy          
-recovery:model        squash # Alpha squash recovery or perfect predition: |squash|perfect|
-iq:size                   96 # issue queue (IQ) size 
-iq:issue_exec_delay            1 # minimum cycles between issue and execution
-fetch_rename_delay            4 # number of cycles between fetch and rename stages
-rename_dispatch_delay            1 # number cycles between rename and dispatch stages
-rf:size                  256 # register file (RF) size for each the INT and FP physical register file)
-lsq:size                 128 # load/store queue (LSQ) size
-cache:dl1       dl1:256:32:4:l # l1 data cache config, i.e., {<config>|none}
-cache:dl1lat               1 # l1 data cache hit latency (in cycles)
-cache:dl2       ul2:1024:64:8:l # l2 data cache config, i.e., {<config>|none}
-cache:dl2lat               6 # l2 data cache hit latency (in cycles)
-cache:il1       il1:512:32:2:l # l1 inst cache config, i.e., {<config>|dl1|dl2|none}
-cache:il1lat               1 # l1 instruction cache hit latency (in cycles)
-cache:il2                dl2 # l2 instruction cache config, i.e., {<config>|dl2|none}
-cache:il2lat               6 # l2 instruction cache hit latency (in cycles)
-cache:flush            false # flush caches on system calls
-cache:icompress        false # convert 64-bit inst addresses to 32-bit inst equivalents
-mem:lat         100 2 # memory access latency (<first_chunk> <inter_chunk>)
-mem:width                  8 # memory access bus width (in bytes)
-tlb:itlb        itlb:16:4096:4:l # instruction TLB config, i.e., {<config>|none}
-tlb:dtlb        dtlb:32:4096:4:l # data TLB config, i.e., {<config>|none}
-tlb:lat                   30 # inst/data TLB miss latency (in cycles)
-res:ialu                   4 # total number of integer ALU's available
-res:imult                  1 # total number of integer multiplier/dividers available
-res:memport                2 # total number of memory system ports available (to CPU)
-res:fpalu                  4 # total number of floating point ALU's available
-res:fpmult                 1 # total number of floating point multiplier/dividers available
# -pcstat              <null> # profile stat(s) against text addr's (mult uses ok)
-power:print_stats         true # print power statistics collected by wattch?

  Pipetrace range arguments are formatted as follows:

    {{@|#}<start>}:{{@|#|+}<end>}

  Both ends of the range are optional, if neither are specified, the entire
  execution is traced.  Ranges that start with a `@' designate an address
  range to be traced, those that start with an `#' designate a cycle count
  range.  All other range values represent an instruction count range.  The
  second argument, if specified with a `+', indicates a value relative
  to the first argument, e.g., 1000:+100 == 1000:1100.  Program symbols may
  be used in all contexts.

    Examples:   -ptrace FOO.trc #0:#1000
                -ptrace BAR.trc @2000:
                -ptrace BLAH.trc :1500
                -ptrace UXXE.trc :
                -ptrace FOOBAR.trc @main:+278

  Branch predictor configuration examples for 2-level predictor:
    Configurations:   N, M, W, X
      N   # entries in first level (# of shift register(s))
      W   width of shift register(s)
      M   # entries in 2nd level (# of counters, or other FSM)
      X   (yes-1/no-0) xor history and address for 2nd level index
    Sample predictors:
      GAg     : 1, W, 2^W, 0
      GAp     : 1, W, M (M > 2^W), 0
      PAg     : N, W, 2^W, 0
      PAp     : N, W, M (M == 2^(N+W)), 0
      gshare  : 1, W, 2^W, 1
  Predictor `comb' combines a bimodal and a 2-level predictor.

  The cache config parameter <config> has the following format:

    <name>:<nsets>:<bsize>:<assoc>:<repl>

    <name>   - name of the cache being defined
    <nsets>  - number of sets in the cache
    <bsize>  - block size of the cache
    <assoc>  - associativity of the cache
    <repl>   - block replacement strategy, 'l'-LRU, 'f'-FIFO, 'r'-random

    Examples:   -cache:dl1 dl1:4096:32:1:l
                -dtlb dtlb:128:4096:32:r

  Cache levels can be unified by pointing a level of the instruction cache
  hierarchy at the data cache hiearchy using the "dl1" and "dl2" cache
  configuration arguments.  Most sensible combinations are supported, e.g.,

    A unified l2 cache (il2 is pointed at dl2):
      -cache:il1 il1:128:64:1:l -cache:il2 dl2
      -cache:dl1 dl1:256:32:1:l -cache:dl2 ul2:1024:64:2:l

    Or, a fully unified cache hierarchy (il1 pointed at dl1):
      -cache:il1 dl1
      -cache:dl1 ul1:256:32:1:l -cache:dl2 ul2:1024:64:2:l



sim: ** fast forwarding insts **
warning: partially supported sigaction() call...
warning: unsupported ioctl call: ioctl(536900702, ...)
warning: invalid/unimplemented syscall 226, PC=0x1200b4a54, RA=0x120098314, winging it
warning: unsupported ioctl call: ioctl(536900702, ...)
sim: ** starting performance simulation **
EPOCH STARTS
TH0 ROB: 4 LSQ: 0 IQ: 0 IPC: 0.1522
TH1 ROB: 105 LSQ: 86 IQ: 96, IPC: 1.8250
TH2 ROB: 4 LSQ: 2 IQ: 0, IPC: 0.1409
TH3 ROB: 4 LSQ: 3 IQ: 0, IPC: 0.1656
EPOCH ENDS
EPOCH STARTS
TH0 ROB: 4 LSQ: 0 IQ: 0 IPC: 0.0761
TH1 ROB: 104 LSQ: 85 IQ: 96, IPC: 2.0105
TH2 ROB: 4 LSQ: 2 IQ: 0, IPC: 0.0705
TH3 ROB: 4 LSQ: 3 IQ: 0, IPC: 0.0828
EPOCH ENDS
EPOCH STARTS
TH0 ROB: 4 LSQ: 0 IQ: 0 IPC: 0.0507
TH1 ROB: 104 LSQ: 85 IQ: 96, IPC: 2.0724
TH2 ROB: 4 LSQ: 2 IQ: 0, IPC: 0.0470
TH3 ROB: 4 LSQ: 3 IQ: 0, IPC: 0.0552
EPOCH ENDS
EPOCH STARTS
TH0 ROB: 4 LSQ: 0 IQ: 0 IPC: 0.0381
TH1 ROB: 104 LSQ: 87 IQ: 96, IPC: 2.1033
TH2 ROB: 4 LSQ: 2 IQ: 0, IPC: 0.0352
TH3 ROB: 4 LSQ: 3 IQ: 0, IPC: 0.0414
EPOCH ENDS
EPOCH STARTS
TH0 ROB: 4 LSQ: 0 IQ: 0 IPC: 0.0304
TH1 ROB: 105 LSQ: 87 IQ: 96, IPC: 2.1218
TH2 ROB: 4 LSQ: 2 IQ: 0, IPC: 0.0282
TH3 ROB: 4 LSQ: 3 IQ: 0, IPC: 0.0331
EPOCH ENDS
EPOCH STARTS
TH0 ROB: 4 LSQ: 0 IQ: 0 IPC: 0.0254
TH1 ROB: 105 LSQ: 85 IQ: 96, IPC: 2.1342
TH2 ROB: 4 LSQ: 2 IQ: 0, IPC: 0.0235
TH3 ROB: 4 LSQ: 3 IQ: 0, IPC: 0.0276
EPOCH ENDS
EPOCH STARTS
TH0 ROB: 4 LSQ: 0 IQ: 0 IPC: 0.0217
TH1 ROB: 104 LSQ: 85 IQ: 96, IPC: 2.1431
TH2 ROB: 4 LSQ: 2 IQ: 0, IPC: 0.0201
TH3 ROB: 4 LSQ: 3 IQ: 0, IPC: 0.0237
EPOCH ENDS
EPOCH STARTS
TH0 ROB: 4 LSQ: 0 IQ: 0 IPC: 0.0190
TH1 ROB: 104 LSQ: 85 IQ: 96, IPC: 2.1497
TH2 ROB: 4 LSQ: 2 IQ: 0, IPC: 0.0176
TH3 ROB: 4 LSQ: 3 IQ: 0, IPC: 0.0207
EPOCH ENDS
EPOCH STARTS
TH0 ROB: 4 LSQ: 0 IQ: 0 IPC: 0.0169
TH1 ROB: 104 LSQ: 86 IQ: 96, IPC: 2.1548
TH2 ROB: 4 LSQ: 2 IQ: 0, IPC: 0.0157
TH3 ROB: 4 LSQ: 3 IQ: 0, IPC: 0.0184
EPOCH ENDS
EPOCH STARTS
TH0 ROB: 4 LSQ: 0 IQ: 0 IPC: 0.0152
TH1 ROB: 107 LSQ: 88 IQ: 96, IPC: 2.1590
TH2 ROB: 4 LSQ: 2 IQ: 0, IPC: 0.0141
TH3 ROB: 4 LSQ: 3 IQ: 0, IPC: 0.0166
EPOCH ENDS
EPOCH STARTS
TH0 ROB: 4 LSQ: 0 IQ: 0 IPC: 0.0138
TH1 ROB: 105 LSQ: 86 IQ: 96, IPC: 2.1623
TH2 ROB: 4 LSQ: 2 IQ: 0, IPC: 0.0128
TH3 ROB: 4 LSQ: 3 IQ: 0, IPC: 0.0151
EPOCH ENDS
EPOCH STARTS
TH0 ROB: 4 LSQ: 0 IQ: 0 IPC: 0.0127
TH1 ROB: 105 LSQ: 85 IQ: 96, IPC: 2.1651
TH2 ROB: 4 LSQ: 2 IQ: 0, IPC: 0.0117
TH3 ROB: 4 LSQ: 3 IQ: 0, IPC: 0.0138
EPOCH ENDS
EPOCH STARTS
TH0 ROB: 4 LSQ: 0 IQ: 0 IPC: 0.0117
TH1 ROB: 104 LSQ: 85 IQ: 96, IPC: 2.1675
TH2 ROB: 4 LSQ: 2 IQ: 0, IPC: 0.0108
TH3 ROB: 4 LSQ: 3 IQ: 0, IPC: 0.0127
EPOCH ENDS
EPOCH STARTS
TH0 ROB: 4 LSQ: 0 IQ: 0 IPC: 0.0109
TH1 ROB: 105 LSQ: 87 IQ: 96, IPC: 2.1696
TH2 ROB: 4 LSQ: 2 IQ: 0, IPC: 0.0101
TH3 ROB: 4 LSQ: 3 IQ: 0, IPC: 0.0118
EPOCH ENDS
EPOCH STARTS
TH0 ROB: 4 LSQ: 0 IQ: 0 IPC: 0.0101
TH1 ROB: 105 LSQ: 86 IQ: 96, IPC: 2.1713
TH2 ROB: 4 LSQ: 2 IQ: 0, IPC: 0.0094
TH3 ROB: 4 LSQ: 3 IQ: 0, IPC: 0.0110
EPOCH ENDS
EPOCH STARTS
TH0 ROB: 4 LSQ: 0 IQ: 0 IPC: 0.0095
TH1 ROB: 104 LSQ: 85 IQ: 96, IPC: 2.1729
TH2 ROB: 4 LSQ: 2 IQ: 0, IPC: 0.0088
TH3 ROB: 4 LSQ: 3 IQ: 0, IPC: 0.0104
EPOCH ENDS
EPOCH STARTS
TH0 ROB: 4 LSQ: 0 IQ: 0 IPC: 0.0090
TH1 ROB: 105 LSQ: 86 IQ: 96, IPC: 2.1742
TH2 ROB: 4 LSQ: 2 IQ: 0, IPC: 0.0083
TH3 ROB: 4 LSQ: 3 IQ: 0, IPC: 0.0097
EPOCH ENDS
EPOCH STARTS
TH0 ROB: 4 LSQ: 0 IQ: 0 IPC: 0.0085
TH1 ROB: 105 LSQ: 87 IQ: 96, IPC: 2.1755
TH2 ROB: 4 LSQ: 2 IQ: 0, IPC: 0.0078
TH3 ROB: 4 LSQ: 3 IQ: 0, IPC: 0.0092
EPOCH ENDS
EPOCH STARTS
TH0 ROB: 4 LSQ: 0 IQ: 0 IPC: 0.0080
TH1 ROB: 105 LSQ: 87 IQ: 96, IPC: 2.1765
TH2 ROB: 4 LSQ: 2 IQ: 0, IPC: 0.0074
TH3 ROB: 4 LSQ: 3 IQ: 0, IPC: 0.0087
EPOCH ENDS
EPOCH STARTS
TH0 ROB: 4 LSQ: 0 IQ: 0 IPC: 0.0076
TH1 ROB: 106 LSQ: 87 IQ: 96, IPC: 2.1775
TH2 ROB: 4 LSQ: 2 IQ: 0, IPC: 0.0070
TH3 ROB: 4 LSQ: 3 IQ: 0, IPC: 0.0083
EPOCH ENDS
EPOCH STARTS
TH0 ROB: 4 LSQ: 0 IQ: 0 IPC: 0.0072
TH1 ROB: 104 LSQ: 85 IQ: 96, IPC: 2.1784
TH2 ROB: 4 LSQ: 2 IQ: 0, IPC: 0.0067
TH3 ROB: 4 LSQ: 3 IQ: 0, IPC: 0.0079
EPOCH ENDS
EPOCH STARTS
TH0 ROB: 4 LSQ: 0 IQ: 0 IPC: 0.0069
TH1 ROB: 104 LSQ: 85 IQ: 96, IPC: 2.1792
TH2 ROB: 4 LSQ: 2 IQ: 0, IPC: 0.0064
TH3 ROB: 4 LSQ: 3 IQ: 0, IPC: 0.0075
EPOCH ENDS
EPOCH STARTS
TH0 ROB: 4 LSQ: 0 IQ: 0 IPC: 0.0066
TH1 ROB: 105 LSQ: 87 IQ: 96, IPC: 2.1799
TH2 ROB: 4 LSQ: 2 IQ: 0, IPC: 0.0061
TH3 ROB: 4 LSQ: 3 IQ: 0, IPC: 0.0072
EPOCH ENDS
EPOCH STARTS
TH0 ROB: 4 LSQ: 0 IQ: 0 IPC: 0.0063
TH1 ROB: 106 LSQ: 87 IQ: 96, IPC: 2.1806
TH2 ROB: 4 LSQ: 2 IQ: 0, IPC: 0.0059
TH3 ROB: 4 LSQ: 3 IQ: 0, IPC: 0.0069
EPOCH ENDS
EPOCH STARTS
TH0 ROB: 4 LSQ: 0 IQ: 0 IPC: 0.0061
TH1 ROB: 106 LSQ: 87 IQ: 96, IPC: 2.1812
TH2 ROB: 4 LSQ: 2 IQ: 0, IPC: 0.0056
TH3 ROB: 4 LSQ: 3 IQ: 0, IPC: 0.0066
EPOCH ENDS
EPOCH STARTS
TH0 ROB: 4 LSQ: 0 IQ: 0 IPC: 0.0059
TH1 ROB: 106 LSQ: 87 IQ: 96, IPC: 2.1818
TH2 ROB: 4 LSQ: 2 IQ: 0, IPC: 0.0054
TH3 ROB: 4 LSQ: 3 IQ: 0, IPC: 0.0064
EPOCH ENDS
EPOCH STARTS
TH0 ROB: 4 LSQ: 0 IQ: 0 IPC: 0.0056
TH1 ROB: 104 LSQ: 86 IQ: 96, IPC: 2.1823
TH2 ROB: 4 LSQ: 2 IQ: 0, IPC: 0.0052
TH3 ROB: 4 LSQ: 3 IQ: 0, IPC: 0.0061
EPOCH ENDS
EPOCH STARTS
TH0 ROB: 4 LSQ: 0 IQ: 0 IPC: 0.0054
TH1 ROB: 104 LSQ: 87 IQ: 96, IPC: 2.1828
TH2 ROB: 4 LSQ: 2 IQ: 0, IPC: 0.0050
TH3 ROB: 4 LSQ: 3 IQ: 0, IPC: 0.0059
EPOCH ENDS
EPOCH STARTS
TH0 ROB: 4 LSQ: 0 IQ: 0 IPC: 0.0052
TH1 ROB: 105 LSQ: 86 IQ: 96, IPC: 2.1833
TH2 ROB: 4 LSQ: 2 IQ: 0, IPC: 0.0049
TH3 ROB: 4 LSQ: 3 IQ: 0, IPC: 0.0057
EPOCH ENDS
EPOCH STARTS
TH0 ROB: 4 LSQ: 0 IQ: 0 IPC: 0.0051
TH1 ROB: 105 LSQ: 86 IQ: 96, IPC: 2.1837
TH2 ROB: 4 LSQ: 2 IQ: 0, IPC: 0.0047
TH3 ROB: 4 LSQ: 3 IQ: 0, IPC: 0.0055
EPOCH ENDS
EPOCH STARTS
TH0 ROB: 4 LSQ: 0 IQ: 0 IPC: 0.0049
TH1 ROB: 106 LSQ: 87 IQ: 96, IPC: 2.1841
TH2 ROB: 4 LSQ: 2 IQ: 0, IPC: 0.0045
TH3 ROB: 4 LSQ: 3 IQ: 0, IPC: 0.0053
EPOCH ENDS
EPOCH STARTS
TH0 ROB: 4 LSQ: 0 IQ: 0 IPC: 0.0048
TH1 ROB: 105 LSQ: 87 IQ: 96, IPC: 2.1845
TH2 ROB: 4 LSQ: 2 IQ: 0, IPC: 0.0044
TH3 ROB: 4 LSQ: 3 IQ: 0, IPC: 0.0052
EPOCH ENDS
EPOCH STARTS
TH0 ROB: 4 LSQ: 0 IQ: 0 IPC: 0.0046
TH1 ROB: 105 LSQ: 86 IQ: 96, IPC: 2.1848
TH2 ROB: 4 LSQ: 2 IQ: 0, IPC: 0.0043
TH3 ROB: 4 LSQ: 3 IQ: 0, IPC: 0.0050
EPOCH ENDS
EPOCH STARTS
TH0 ROB: 4 LSQ: 0 IQ: 0 IPC: 0.0045
TH1 ROB: 105 LSQ: 86 IQ: 96, IPC: 2.1852
TH2 ROB: 4 LSQ: 2 IQ: 0, IPC: 0.0041
TH3 ROB: 4 LSQ: 3 IQ: 0, IPC: 0.0049
EPOCH ENDS
EPOCH STARTS
TH0 ROB: 4 LSQ: 0 IQ: 0 IPC: 0.0043
TH1 ROB: 105 LSQ: 86 IQ: 96, IPC: 2.1855
TH2 ROB: 4 LSQ: 2 IQ: 0, IPC: 0.0040
TH3 ROB: 4 LSQ: 3 IQ: 0, IPC: 0.0047
EPOCH ENDS
EPOCH STARTS
TH0 ROB: 4 LSQ: 0 IQ: 0 IPC: 0.0042
TH1 ROB: 105 LSQ: 86 IQ: 96, IPC: 2.1858
TH2 ROB: 4 LSQ: 2 IQ: 0, IPC: 0.0039
TH3 ROB: 4 LSQ: 3 IQ: 0, IPC: 0.0046
EPOCH ENDS
EPOCH STARTS
TH0 ROB: 4 LSQ: 0 IQ: 0 IPC: 0.0041
TH1 ROB: 105 LSQ: 87 IQ: 96, IPC: 2.1860
TH2 ROB: 4 LSQ: 2 IQ: 0, IPC: 0.0038
TH3 ROB: 4 LSQ: 3 IQ: 0, IPC: 0.0045
EPOCH ENDS
EPOCH STARTS
TH0 ROB: 4 LSQ: 0 IQ: 0 IPC: 0.0040
TH1 ROB: 105 LSQ: 86 IQ: 96, IPC: 2.1863
TH2 ROB: 4 LSQ: 2 IQ: 0, IPC: 0.0037
TH3 ROB: 4 LSQ: 3 IQ: 0, IPC: 0.0044
EPOCH ENDS
EPOCH STARTS
TH0 ROB: 4 LSQ: 0 IQ: 0 IPC: 0.0039
TH1 ROB: 105 LSQ: 86 IQ: 96, IPC: 2.1866
TH2 ROB: 4 LSQ: 2 IQ: 0, IPC: 0.0036
TH3 ROB: 4 LSQ: 3 IQ: 0, IPC: 0.0042
EPOCH ENDS
EPOCH STARTS
TH0 ROB: 4 LSQ: 0 IQ: 0 IPC: 0.0038
TH1 ROB: 105 LSQ: 86 IQ: 96, IPC: 2.1868
TH2 ROB: 4 LSQ: 2 IQ: 0, IPC: 0.0035
TH3 ROB: 4 LSQ: 3 IQ: 0, IPC: 0.0041
EPOCH ENDS
EPOCH STARTS
TH0 ROB: 4 LSQ: 0 IQ: 0 IPC: 0.0037
TH1 ROB: 105 LSQ: 87 IQ: 96, IPC: 2.1870
TH2 ROB: 4 LSQ: 2 IQ: 0, IPC: 0.0034
TH3 ROB: 4 LSQ: 3 IQ: 0, IPC: 0.0040
EPOCH ENDS
EPOCH STARTS
TH0 ROB: 4 LSQ: 0 IQ: 0 IPC: 0.0036
TH1 ROB: 105 LSQ: 88 IQ: 96, IPC: 2.1872
TH2 ROB: 4 LSQ: 2 IQ: 0, IPC: 0.0034
TH3 ROB: 4 LSQ: 3 IQ: 0, IPC: 0.0039
EPOCH ENDS
EPOCH STARTS
TH0 ROB: 4 LSQ: 0 IQ: 0 IPC: 0.0035
TH1 ROB: 104 LSQ: 85 IQ: 96, IPC: 2.1874
TH2 ROB: 4 LSQ: 2 IQ: 0, IPC: 0.0033
TH3 ROB: 4 LSQ: 3 IQ: 0, IPC: 0.0039
EPOCH ENDS
EPOCH STARTS
TH0 ROB: 4 LSQ: 0 IQ: 0 IPC: 0.0035
TH1 ROB: 104 LSQ: 85 IQ: 96, IPC: 2.1876
TH2 ROB: 4 LSQ: 2 IQ: 0, IPC: 0.0032
TH3 ROB: 4 LSQ: 3 IQ: 0, IPC: 0.0038
EPOCH ENDS
EPOCH STARTS
TH0 ROB: 4 LSQ: 0 IQ: 0 IPC: 0.0034
TH1 ROB: 105 LSQ: 86 IQ: 96, IPC: 2.1878
TH2 ROB: 4 LSQ: 2 IQ: 0, IPC: 0.0031
TH3 ROB: 4 LSQ: 3 IQ: 0, IPC: 0.0037
EPOCH ENDS
EPOCH STARTS
TH0 ROB: 4 LSQ: 0 IQ: 0 IPC: 0.0033
TH1 ROB: 105 LSQ: 87 IQ: 96, IPC: 2.1880
TH2 ROB: 4 LSQ: 2 IQ: 0, IPC: 0.0031
TH3 ROB: 4 LSQ: 3 IQ: 0, IPC: 0.0036
EPOCH ENDS
EPOCH STARTS
TH0 ROB: 4 LSQ: 0 IQ: 0 IPC: 0.0032
TH1 ROB: 106 LSQ: 87 IQ: 96, IPC: 2.1882
TH2 ROB: 4 LSQ: 2 IQ: 0, IPC: 0.0030
TH3 ROB: 4 LSQ: 3 IQ: 0, IPC: 0.0035
EPOCH ENDS
EPOCH STARTS
TH0 ROB: 4 LSQ: 0 IQ: 0 IPC: 0.0032
TH1 ROB: 104 LSQ: 85 IQ: 96, IPC: 2.1883
TH2 ROB: 4 LSQ: 2 IQ: 0, IPC: 0.0029
TH3 ROB: 4 LSQ: 3 IQ: 0, IPC: 0.0035
EPOCH ENDS
EPOCH STARTS
TH0 ROB: 4 LSQ: 0 IQ: 0 IPC: 0.0031
TH1 ROB: 104 LSQ: 85 IQ: 96, IPC: 2.1885
TH2 ROB: 4 LSQ: 2 IQ: 0, IPC: 0.0029
TH3 ROB: 4 LSQ: 3 IQ: 0, IPC: 0.0034
EPOCH ENDS
EPOCH STARTS
TH0 ROB: 4 LSQ: 0 IQ: 0 IPC: 0.0030
TH1 ROB: 104 LSQ: 85 IQ: 96, IPC: 2.1887
TH2 ROB: 4 LSQ: 2 IQ: 0, IPC: 0.0028
TH3 ROB: 4 LSQ: 3 IQ: 0, IPC: 0.0033
EPOCH ENDS
EPOCH STARTS
TH0 ROB: 4 LSQ: 0 IQ: 0 IPC: 0.0030
TH1 ROB: 105 LSQ: 87 IQ: 96, IPC: 2.1888
TH2 ROB: 4 LSQ: 2 IQ: 0, IPC: 0.0028
TH3 ROB: 4 LSQ: 3 IQ: 0, IPC: 0.0032
EPOCH ENDS
EPOCH STARTS
TH0 ROB: 4 LSQ: 0 IQ: 0 IPC: 0.0029
TH1 ROB: 105 LSQ: 86 IQ: 96, IPC: 2.1889
TH2 ROB: 4 LSQ: 2 IQ: 0, IPC: 0.0027
TH3 ROB: 4 LSQ: 3 IQ: 0, IPC: 0.0032
EPOCH ENDS
EPOCH STARTS
TH0 ROB: 4 LSQ: 0 IQ: 0 IPC: 0.0029
TH1 ROB: 104 LSQ: 85 IQ: 96, IPC: 2.1891
TH2 ROB: 4 LSQ: 2 IQ: 0, IPC: 0.0027
TH3 ROB: 4 LSQ: 3 IQ: 0, IPC: 0.0031
EPOCH ENDS
EPOCH STARTS
TH0 ROB: 4 LSQ: 0 IQ: 0 IPC: 0.0028
TH1 ROB: 104 LSQ: 85 IQ: 96, IPC: 2.1892
TH2 ROB: 4 LSQ: 2 IQ: 0, IPC: 0.0026
TH3 ROB: 4 LSQ: 3 IQ: 0, IPC: 0.0031
EPOCH ENDS
EPOCH STARTS
TH0 ROB: 4 LSQ: 0 IQ: 0 IPC: 0.0028
TH1 ROB: 104 LSQ: 87 IQ: 96, IPC: 2.1893
TH2 ROB: 4 LSQ: 2 IQ: 0, IPC: 0.0026
TH3 ROB: 4 LSQ: 3 IQ: 0, IPC: 0.0030
EPOCH ENDS
EPOCH STARTS
TH0 ROB: 4 LSQ: 0 IQ: 0 IPC: 0.0027
TH1 ROB: 105 LSQ: 87 IQ: 96, IPC: 2.1895
TH2 ROB: 4 LSQ: 2 IQ: 0, IPC: 0.0025
TH3 ROB: 4 LSQ: 3 IQ: 0, IPC: 0.0030
EPOCH ENDS
EPOCH STARTS
TH0 ROB: 4 LSQ: 0 IQ: 0 IPC: 0.0027
TH1 ROB: 105 LSQ: 85 IQ: 96, IPC: 2.1896
TH2 ROB: 4 LSQ: 2 IQ: 0, IPC: 0.0025
TH3 ROB: 4 LSQ: 3 IQ: 0, IPC: 0.0029
EPOCH ENDS
EPOCH STARTS
TH0 ROB: 4 LSQ: 0 IQ: 0 IPC: 0.0026
TH1 ROB: 104 LSQ: 85 IQ: 96, IPC: 2.1897
TH2 ROB: 4 LSQ: 2 IQ: 0, IPC: 0.0024
TH3 ROB: 4 LSQ: 3 IQ: 0, IPC: 0.0029
EPOCH ENDS
EPOCH STARTS
TH0 ROB: 4 LSQ: 0 IQ: 0 IPC: 0.0026
TH1 ROB: 104 LSQ: 85 IQ: 96, IPC: 2.1898
TH2 ROB: 4 LSQ: 2 IQ: 0, IPC: 0.0024
TH3 ROB: 4 LSQ: 3 IQ: 0, IPC: 0.0028
EPOCH ENDS
EPOCH STARTS
TH0 ROB: 4 LSQ: 0 IQ: 0 IPC: 0.0025
TH1 ROB: 104 LSQ: 86 IQ: 96, IPC: 2.1899
TH2 ROB: 4 LSQ: 2 IQ: 0, IPC: 0.0023
TH3 ROB: 4 LSQ: 3 IQ: 0, IPC: 0.0028
EPOCH ENDS
EPOCH STARTS
TH0 ROB: 4 LSQ: 0 IQ: 0 IPC: 0.0025
TH1 ROB: 107 LSQ: 88 IQ: 96, IPC: 2.1900
TH2 ROB: 4 LSQ: 2 IQ: 0, IPC: 0.0023
TH3 ROB: 4 LSQ: 3 IQ: 0, IPC: 0.0027
EPOCH ENDS
EPOCH STARTS
TH0 ROB: 4 LSQ: 0 IQ: 0 IPC: 0.0025
TH1 ROB: 105 LSQ: 86 IQ: 96, IPC: 2.1901
TH2 ROB: 4 LSQ: 2 IQ: 0, IPC: 0.0023
TH3 ROB: 4 LSQ: 3 IQ: 0, IPC: 0.0027
EPOCH ENDS
EPOCH STARTS
TH0 ROB: 4 LSQ: 0 IQ: 0 IPC: 0.0024
TH1 ROB: 105 LSQ: 85 IQ: 96, IPC: 2.1902
TH2 ROB: 4 LSQ: 2 IQ: 0, IPC: 0.0022
TH3 ROB: 4 LSQ: 3 IQ: 0, IPC: 0.0026
EPOCH ENDS
EPOCH STARTS
TH0 ROB: 4 LSQ: 0 IQ: 0 IPC: 0.0024
TH1 ROB: 104 LSQ: 85 IQ: 96, IPC: 2.1903
TH2 ROB: 4 LSQ: 2 IQ: 0, IPC: 0.0022
TH3 ROB: 4 LSQ: 3 IQ: 0, IPC: 0.0026
EPOCH ENDS
EPOCH STARTS
TH0 ROB: 4 LSQ: 0 IQ: 0 IPC: 0.0023
TH1 ROB: 105 LSQ: 87 IQ: 96, IPC: 2.1904
TH2 ROB: 4 LSQ: 2 IQ: 0, IPC: 0.0022
TH3 ROB: 4 LSQ: 3 IQ: 0, IPC: 0.0025
EPOCH ENDS
EPOCH STARTS
TH0 ROB: 4 LSQ: 0 IQ: 0 IPC: 0.0023
TH1 ROB: 105 LSQ: 86 IQ: 96, IPC: 2.1905
TH2 ROB: 4 LSQ: 2 IQ: 0, IPC: 0.0021
TH3 ROB: 4 LSQ: 3 IQ: 0, IPC: 0.0025
EPOCH ENDS
EPOCH STARTS
TH0 ROB: 4 LSQ: 0 IQ: 0 IPC: 0.0023
TH1 ROB: 104 LSQ: 85 IQ: 96, IPC: 2.1905
TH2 ROB: 4 LSQ: 2 IQ: 0, IPC: 0.0021
TH3 ROB: 4 LSQ: 3 IQ: 0, IPC: 0.0025
EPOCH ENDS
EPOCH STARTS
TH0 ROB: 4 LSQ: 0 IQ: 0 IPC: 0.0022
TH1 ROB: 105 LSQ: 86 IQ: 96, IPC: 2.1906
TH2 ROB: 4 LSQ: 2 IQ: 0, IPC: 0.0021
TH3 ROB: 4 LSQ: 3 IQ: 0, IPC: 0.0024
EPOCH ENDS
EPOCH STARTS
TH0 ROB: 4 LSQ: 0 IQ: 0 IPC: 0.0022
TH1 ROB: 105 LSQ: 87 IQ: 96, IPC: 2.1907
TH2 ROB: 4 LSQ: 2 IQ: 0, IPC: 0.0020
TH3 ROB: 4 LSQ: 3 IQ: 0, IPC: 0.0024
EPOCH ENDS
EPOCH STARTS
TH0 ROB: 4 LSQ: 0 IQ: 0 IPC: 0.0022
TH1 ROB: 105 LSQ: 87 IQ: 96, IPC: 2.1908
TH2 ROB: 4 LSQ: 2 IQ: 0, IPC: 0.0020
TH3 ROB: 4 LSQ: 3 IQ: 0, IPC: 0.0024
EPOCH ENDS
EPOCH STARTS
TH0 ROB: 4 LSQ: 0 IQ: 0 IPC: 0.0021
TH1 ROB: 106 LSQ: 87 IQ: 96, IPC: 2.1909
TH2 ROB: 4 LSQ: 2 IQ: 0, IPC: 0.0020
TH3 ROB: 4 LSQ: 3 IQ: 0, IPC: 0.0023
EPOCH ENDS
EPOCH STARTS
TH0 ROB: 4 LSQ: 0 IQ: 0 IPC: 0.0021
TH1 ROB: 104 LSQ: 85 IQ: 96, IPC: 2.1909
TH2 ROB: 4 LSQ: 2 IQ: 0, IPC: 0.0020
TH3 ROB: 4 LSQ: 3 IQ: 0, IPC: 0.0023
EPOCH ENDS
EPOCH STARTS
TH0 ROB: 4 LSQ: 0 IQ: 0 IPC: 0.0021
TH1 ROB: 104 LSQ: 85 IQ: 96, IPC: 2.1910
TH2 ROB: 4 LSQ: 2 IQ: 0, IPC: 0.0019
TH3 ROB: 4 LSQ: 3 IQ: 0, IPC: 0.0023
EPOCH ENDS
EPOCH STARTS
TH0 ROB: 4 LSQ: 0 IQ: 0 IPC: 0.0021
TH1 ROB: 105 LSQ: 87 IQ: 96, IPC: 2.1911
TH2 ROB: 4 LSQ: 2 IQ: 0, IPC: 0.0019
TH3 ROB: 4 LSQ: 3 IQ: 0, IPC: 0.0022
EPOCH ENDS
EPOCH STARTS
TH0 ROB: 4 LSQ: 0 IQ: 0 IPC: 0.0020
TH1 ROB: 106 LSQ: 87 IQ: 96, IPC: 2.1911
TH2 ROB: 4 LSQ: 2 IQ: 0, IPC: 0.0019
TH3 ROB: 4 LSQ: 3 IQ: 0, IPC: 0.0022
EPOCH ENDS
EPOCH STARTS
TH0 ROB: 4 LSQ: 0 IQ: 0 IPC: 0.0020
TH1 ROB: 106 LSQ: 87 IQ: 96, IPC: 2.1912
TH2 ROB: 4 LSQ: 2 IQ: 0, IPC: 0.0019
TH3 ROB: 4 LSQ: 3 IQ: 0, IPC: 0.0022
EPOCH ENDS
EPOCH STARTS
TH0 ROB: 4 LSQ: 0 IQ: 0 IPC: 0.0020
TH1 ROB: 106 LSQ: 87 IQ: 96, IPC: 2.1913
TH2 ROB: 4 LSQ: 2 IQ: 0, IPC: 0.0018
TH3 ROB: 4 LSQ: 3 IQ: 0, IPC: 0.0022
EPOCH ENDS
EPOCH STARTS
TH0 ROB: 4 LSQ: 0 IQ: 0 IPC: 0.0020
TH1 ROB: 104 LSQ: 86 IQ: 96, IPC: 2.1913
TH2 ROB: 4 LSQ: 2 IQ: 0, IPC: 0.0018
TH3 ROB: 4 LSQ: 3 IQ: 0, IPC: 0.0021
EPOCH ENDS
EPOCH STARTS
TH0 ROB: 4 LSQ: 0 IQ: 0 IPC: 0.0019
TH1 ROB: 104 LSQ: 87 IQ: 96, IPC: 2.1914
TH2 ROB: 4 LSQ: 2 IQ: 0, IPC: 0.0018
TH3 ROB: 4 LSQ: 3 IQ: 0, IPC: 0.0021
EPOCH ENDS
EPOCH STARTS
TH0 ROB: 4 LSQ: 0 IQ: 0 IPC: 0.0019
TH1 ROB: 105 LSQ: 86 IQ: 96, IPC: 2.1914
TH2 ROB: 4 LSQ: 2 IQ: 0, IPC: 0.0018
TH3 ROB: 4 LSQ: 3 IQ: 0, IPC: 0.0021
EPOCH ENDS
EPOCH STARTS
TH0 ROB: 4 LSQ: 0 IQ: 0 IPC: 0.0019
TH1 ROB: 105 LSQ: 86 IQ: 96, IPC: 2.1915
TH2 ROB: 4 LSQ: 2 IQ: 0, IPC: 0.0017
TH3 ROB: 4 LSQ: 3 IQ: 0, IPC: 0.0020
EPOCH ENDS
EPOCH STARTS
TH0 ROB: 4 LSQ: 0 IQ: 0 IPC: 0.0019
TH1 ROB: 106 LSQ: 87 IQ: 96, IPC: 2.1916
TH2 ROB: 4 LSQ: 2 IQ: 0, IPC: 0.0017
TH3 ROB: 4 LSQ: 3 IQ: 0, IPC: 0.0020
EPOCH ENDS
EPOCH STARTS
TH0 ROB: 4 LSQ: 0 IQ: 0 IPC: 0.0018
TH1 ROB: 105 LSQ: 87 IQ: 96, IPC: 2.1916
TH2 ROB: 4 LSQ: 2 IQ: 0, IPC: 0.0017
TH3 ROB: 4 LSQ: 3 IQ: 0, IPC: 0.0020
EPOCH ENDS
EPOCH STARTS
TH0 ROB: 4 LSQ: 0 IQ: 0 IPC: 0.0018
TH1 ROB: 105 LSQ: 86 IQ: 96, IPC: 2.1917
TH2 ROB: 4 LSQ: 2 IQ: 0, IPC: 0.0017
TH3 ROB: 4 LSQ: 3 IQ: 0, IPC: 0.0020
EPOCH ENDS
EPOCH STARTS
TH0 ROB: 4 LSQ: 0 IQ: 0 IPC: 0.0018
TH1 ROB: 105 LSQ: 86 IQ: 96, IPC: 2.1917
TH2 ROB: 4 LSQ: 2 IQ: 0, IPC: 0.0017
TH3 ROB: 4 LSQ: 3 IQ: 0, IPC: 0.0019
EPOCH ENDS
EPOCH STARTS
TH0 ROB: 35 LSQ: 11 IQ: 26 IPC: 0.0048
TH1 ROB: 7 LSQ: 3 IQ: 5, IPC: 2.1812
TH2 ROB: 30 LSQ: 14 IQ: 26, IPC: 0.0048
TH3 ROB: 48 LSQ: 30 IQ: 39, IPC: 0.0063
EPOCH ENDS
EPOCH STARTS
TH0 ROB: 36 LSQ: 19 IQ: 33 IPC: 0.0128
TH1 ROB: 19 LSQ: 5 IQ: 15, IPC: 2.1633
TH2 ROB: 40 LSQ: 8 IQ: 30, IPC: 0.0118
TH3 ROB: 22 LSQ: 12 IQ: 18, IPC: 0.0155
EPOCH ENDS
EPOCH STARTS
TH0 ROB: 43 LSQ: 7 IQ: 35 IPC: 0.0204
TH1 ROB: 21 LSQ: 6 IQ: 16, IPC: 2.1472
TH2 ROB: 51 LSQ: 17 IQ: 31, IPC: 0.0185
TH3 ROB: 21 LSQ: 12 IQ: 14, IPC: 0.0240
EPOCH ENDS
EPOCH STARTS
TH0 ROB: 31 LSQ: 8 IQ: 28 IPC: 0.0277
TH1 ROB: 33 LSQ: 10 IQ: 26, IPC: 2.1316
TH2 ROB: 56 LSQ: 19 IQ: 22, IPC: 0.0250
TH3 ROB: 27 LSQ: 17 IQ: 20, IPC: 0.0323
EPOCH ENDS
EPOCH STARTS
TH0 ROB: 39 LSQ: 7 IQ: 31 IPC: 0.0352
TH1 ROB: 38 LSQ: 13 IQ: 23, IPC: 2.1163
TH2 ROB: 18 LSQ: 6 IQ: 14, IPC: 0.0306
TH3 ROB: 32 LSQ: 22 IQ: 28, IPC: 0.0408
EPOCH ENDS
EPOCH STARTS
TH0 ROB: 33 LSQ: 9 IQ: 20 IPC: 0.0424
TH1 ROB: 31 LSQ: 10 IQ: 24, IPC: 2.1013
TH2 ROB: 20 LSQ: 10 IQ: 7, IPC: 0.0368
TH3 ROB: 45 LSQ: 27 IQ: 45, IPC: 0.0487
EPOCH ENDS
EPOCH STARTS
TH0 ROB: 30 LSQ: 7 IQ: 18 IPC: 0.0494
TH1 ROB: 31 LSQ: 10 IQ: 24, IPC: 2.0865
TH2 ROB: 41 LSQ: 18 IQ: 38, IPC: 0.0431
TH3 ROB: 20 LSQ: 13 IQ: 16, IPC: 0.0564
EPOCH ENDS
EPOCH STARTS
TH0 ROB: 66 LSQ: 30 IQ: 35 IPC: 0.0563
TH1 ROB: 53 LSQ: 17 IQ: 49, IPC: 2.0722
TH2 ROB: 19 LSQ: 4 IQ: 6, IPC: 0.0493
TH3 ROB: 10 LSQ: 6 IQ: 6, IPC: 0.0639
EPOCH ENDS
EPOCH STARTS
TH0 ROB: 50 LSQ: 23 IQ: 39 IPC: 0.0629
TH1 ROB: 39 LSQ: 12 IQ: 35, IPC: 2.0583
TH2 ROB: 28 LSQ: 13 IQ: 21, IPC: 0.0552
TH3 ROB: 6 LSQ: 6 IQ: 1, IPC: 0.0713
EPOCH ENDS
EPOCH STARTS
TH0 ROB: 29 LSQ: 5 IQ: 21 IPC: 0.0692
TH1 ROB: 37 LSQ: 11 IQ: 27, IPC: 2.0445
TH2 ROB: 31 LSQ: 9 IQ: 27, IPC: 0.0611
TH3 ROB: 25 LSQ: 15 IQ: 21, IPC: 0.0786
EPOCH ENDS
EPOCH STARTS
TH0 ROB: 32 LSQ: 6 IQ: 25 IPC: 0.0756
TH1 ROB: 42 LSQ: 13 IQ: 31, IPC: 2.0309
TH2 ROB: 17 LSQ: 4 IQ: 13, IPC: 0.0670
TH3 ROB: 31 LSQ: 17 IQ: 27, IPC: 0.0856
EPOCH ENDS
EPOCH STARTS
TH0 ROB: 25 LSQ: 5 IQ: 20 IPC: 0.0819
TH1 ROB: 42 LSQ: 13 IQ: 35, IPC: 2.0177
TH2 ROB: 24 LSQ: 11 IQ: 18, IPC: 0.0727
TH3 ROB: 27 LSQ: 15 IQ: 23, IPC: 0.0925
EPOCH ENDS
EPOCH STARTS
TH0 ROB: 36 LSQ: 14 IQ: 28 IPC: 0.0879
TH1 ROB: 39 LSQ: 12 IQ: 35, IPC: 2.0048
TH2 ROB: 20 LSQ: 5 IQ: 16, IPC: 0.0782
TH3 ROB: 25 LSQ: 19 IQ: 17, IPC: 0.0993
EPOCH ENDS
EPOCH STARTS
TH0 ROB: 20 LSQ: 4 IQ: 16 IPC: 0.0939
TH1 ROB: 10 LSQ: 2 IQ: 6, IPC: 1.9922
TH2 ROB: 59 LSQ: 23 IQ: 48, IPC: 0.0836
TH3 ROB: 28 LSQ: 18 IQ: 26, IPC: 0.1059
EPOCH ENDS
EPOCH STARTS
TH0 ROB: 48 LSQ: 24 IQ: 32 IPC: 0.0998
TH1 ROB: 36 LSQ: 13 IQ: 32, IPC: 1.9796
TH2 ROB: 21 LSQ: 6 IQ: 16, IPC: 0.0890
TH3 ROB: 22 LSQ: 17 IQ: 16, IPC: 0.1124
EPOCH ENDS
EPOCH STARTS
TH0 ROB: 35 LSQ: 6 IQ: 18 IPC: 0.1055
TH1 ROB: 26 LSQ: 8 IQ: 17, IPC: 1.9673
TH2 ROB: 27 LSQ: 10 IQ: 23, IPC: 0.0941
TH3 ROB: 40 LSQ: 25 IQ: 38, IPC: 0.1188
EPOCH ENDS
EPOCH STARTS
TH0 ROB: 22 LSQ: 3 IQ: 18 IPC: 0.1110
TH1 ROB: 34 LSQ: 10 IQ: 17, IPC: 1.9553
TH2 ROB: 27 LSQ: 9 IQ: 25, IPC: 0.0991
TH3 ROB: 40 LSQ: 28 IQ: 36, IPC: 0.1252
EPOCH ENDS
EPOCH STARTS
TH0 ROB: 38 LSQ: 21 IQ: 31 IPC: 0.1165
TH1 ROB: 36 LSQ: 11 IQ: 31, IPC: 1.9436
TH2 ROB: 14 LSQ: 6 IQ: 10, IPC: 0.1041
TH3 ROB: 30 LSQ: 19 IQ: 24, IPC: 0.1314
EPOCH ENDS
EPOCH STARTS
TH0 ROB: 16 LSQ: 2 IQ: 11 IPC: 0.1220
TH1 ROB: 36 LSQ: 12 IQ: 30, IPC: 1.9322
TH2 ROB: 28 LSQ: 12 IQ: 24, IPC: 0.1091
TH3 ROB: 35 LSQ: 24 IQ: 31, IPC: 0.1373
EPOCH ENDS
EPOCH STARTS
TH0 ROB: 30 LSQ: 18 IQ: 26 IPC: 0.1274
TH1 ROB: 31 LSQ: 9 IQ: 24, IPC: 1.9207
TH2 ROB: 24 LSQ: 12 IQ: 20, IPC: 0.1135
TH3 ROB: 48 LSQ: 33 IQ: 22, IPC: 0.1434
EPOCH ENDS
EPOCH STARTS
TH0 ROB: 41 LSQ: 13 IQ: 36 IPC: 0.1326
TH1 ROB: 32 LSQ: 10 IQ: 19, IPC: 1.9097
TH2 ROB: 21 LSQ: 7 IQ: 17, IPC: 0.1181
TH3 ROB: 29 LSQ: 16 IQ: 24, IPC: 0.1493
EPOCH ENDS
EPOCH STARTS
TH0 ROB: 26 LSQ: 11 IQ: 22 IPC: 0.1377
TH1 ROB: 28 LSQ: 9 IQ: 23, IPC: 1.8989
TH2 ROB: 28 LSQ: 10 IQ: 28, IPC: 0.1227
TH3 ROB: 23 LSQ: 16 IQ: 20, IPC: 0.1550
EPOCH ENDS
EPOCH STARTS
TH0 ROB: 35 LSQ: 8 IQ: 23 IPC: 0.1428
TH1 ROB: 26 LSQ: 9 IQ: 22, IPC: 1.8883
TH2 ROB: 32 LSQ: 15 IQ: 25, IPC: 0.1271
TH3 ROB: 31 LSQ: 17 IQ: 26, IPC: 0.1607
EPOCH ENDS
EPOCH STARTS
TH0 ROB: 34 LSQ: 9 IQ: 17 IPC: 0.1475
TH1 ROB: 31 LSQ: 10 IQ: 23, IPC: 1.8779
TH2 ROB: 32 LSQ: 9 IQ: 32, IPC: 0.1316
TH3 ROB: 65 LSQ: 40 IQ: 24, IPC: 0.1662
EPOCH ENDS
EPOCH STARTS
TH0 ROB: 29 LSQ: 20 IQ: 24 IPC: 0.1524
TH1 ROB: 16 LSQ: 6 IQ: 11, IPC: 1.8676
TH2 ROB: 20 LSQ: 8 IQ: 13, IPC: 0.1361
TH3 ROB: 57 LSQ: 36 IQ: 48, IPC: 0.1716
EPOCH ENDS
EPOCH STARTS
TH0 ROB: 38 LSQ: 12 IQ: 36 IPC: 0.1572
TH1 ROB: 19 LSQ: 5 IQ: 14, IPC: 1.8575
TH2 ROB: 34 LSQ: 14 IQ: 26, IPC: 0.1403
TH3 ROB: 42 LSQ: 24 IQ: 20, IPC: 0.1769
EPOCH ENDS
EPOCH STARTS
TH0 ROB: 30 LSQ: 12 IQ: 23 IPC: 0.1619
TH1 ROB: 26 LSQ: 8 IQ: 22, IPC: 1.8475
TH2 ROB: 28 LSQ: 13 IQ: 24, IPC: 0.1445
TH3 ROB: 34 LSQ: 24 IQ: 27, IPC: 0.1822
EPOCH ENDS
EPOCH STARTS
TH0 ROB: 59 LSQ: 20 IQ: 30 IPC: 0.1665
TH1 ROB: 32 LSQ: 10 IQ: 28, IPC: 1.8375
TH2 ROB: 20 LSQ: 6 IQ: 16, IPC: 0.1487
TH3 ROB: 33 LSQ: 22 IQ: 22, IPC: 0.1874
EPOCH ENDS
EPOCH STARTS
TH0 ROB: 18 LSQ: 8 IQ: 14 IPC: 0.1710
TH1 ROB: 35 LSQ: 11 IQ: 30, IPC: 1.8278
TH2 ROB: 28 LSQ: 9 IQ: 24, IPC: 0.1528
TH3 ROB: 32 LSQ: 21 IQ: 28, IPC: 0.1926
EPOCH ENDS
EPOCH STARTS
TH0 ROB: 63 LSQ: 22 IQ: 20 IPC: 0.1754
TH1 ROB: 39 LSQ: 13 IQ: 25, IPC: 1.8184
TH2 ROB: 79 LSQ: 37 IQ: 18, IPC: 0.1567
TH3 ROB: 72 LSQ: 46 IQ: 22, IPC: 0.1975
EPOCH ENDS
EPOCH STARTS
TH0 ROB: 36 LSQ: 21 IQ: 20 IPC: 0.1798
TH1 ROB: 18 LSQ: 6 IQ: 12, IPC: 1.8092
TH2 ROB: 50 LSQ: 21 IQ: 44, IPC: 0.1605
TH3 ROB: 25 LSQ: 15 IQ: 20, IPC: 0.2025
EPOCH ENDS
EPOCH STARTS
TH0 ROB: 26 LSQ: 6 IQ: 22 IPC: 0.1841
TH1 ROB: 31 LSQ: 10 IQ: 29, IPC: 1.8001
TH2 ROB: 28 LSQ: 10 IQ: 25, IPC: 0.1643
TH3 ROB: 26 LSQ: 15 IQ: 20, IPC: 0.2074
EPOCH ENDS
EPOCH STARTS
TH0 ROB: 47 LSQ: 15 IQ: 43 IPC: 0.1883
TH1 ROB: 29 LSQ: 8 IQ: 17, IPC: 1.7912
TH2 ROB: 36 LSQ: 15 IQ: 26, IPC: 0.1680
TH3 ROB: 14 LSQ: 11 IQ: 10, IPC: 0.2120
EPOCH ENDS
EPOCH STARTS
TH0 ROB: 2 LSQ: 1 IQ: 0 IPC: 0.1926
TH1 ROB: 31 LSQ: 10 IQ: 27, IPC: 1.7824
TH2 ROB: 35 LSQ: 10 IQ: 31, IPC: 0.1716
TH3 ROB: 19 LSQ: 12 IQ: 11, IPC: 0.2166
EPOCH ENDS
EPOCH STARTS
TH0 ROB: 24 LSQ: 10 IQ: 17 IPC: 0.1966
TH1 ROB: 51 LSQ: 17 IQ: 39, IPC: 1.7738
TH2 ROB: 11 LSQ: 3 IQ: 11, IPC: 0.1752
TH3 ROB: 22 LSQ: 15 IQ: 15, IPC: 0.2213
EPOCH ENDS
EPOCH STARTS
TH0 ROB: 20 LSQ: 15 IQ: 20 IPC: 0.2005
TH1 ROB: 26 LSQ: 9 IQ: 11, IPC: 1.7652
TH2 ROB: 27 LSQ: 10 IQ: 23, IPC: 0.1787
TH3 ROB: 24 LSQ: 13 IQ: 22, IPC: 0.2260
EPOCH ENDS
EPOCH STARTS
TH0 ROB: 38 LSQ: 6 IQ: 33 IPC: 0.2043
TH1 ROB: 34 LSQ: 11 IQ: 28, IPC: 1.7569
TH2 ROB: 6 LSQ: 2 IQ: 4, IPC: 0.1822
TH3 ROB: 32 LSQ: 19 IQ: 28, IPC: 0.2305
EPOCH ENDS
EPOCH STARTS
TH0 ROB: 10 LSQ: 4 IQ: 5 IPC: 0.2082
TH1 ROB: 41 LSQ: 13 IQ: 37, IPC: 1.7487
TH2 ROB: 30 LSQ: 13 IQ: 27, IPC: 0.1855
TH3 ROB: 28 LSQ: 16 IQ: 27, IPC: 0.2348
EPOCH ENDS
EPOCH STARTS
TH0 ROB: 40 LSQ: 8 IQ: 36 IPC: 0.2120
TH1 ROB: 33 LSQ: 10 IQ: 26, IPC: 1.7408
TH2 ROB: 8 LSQ: 4 IQ: 4, IPC: 0.1889
TH3 ROB: 41 LSQ: 26 IQ: 30, IPC: 0.2391
EPOCH ENDS
EPOCH STARTS
TH0 ROB: 39 LSQ: 14 IQ: 38 IPC: 0.2157
TH1 ROB: 35 LSQ: 12 IQ: 29, IPC: 1.7330
TH2 ROB: 13 LSQ: 3 IQ: 9, IPC: 0.1923
TH3 ROB: 51 LSQ: 34 IQ: 20, IPC: 0.2431
EPOCH ENDS
EPOCH STARTS
TH0 ROB: 46 LSQ: 10 IQ: 19 IPC: 0.2195
TH1 ROB: 35 LSQ: 13 IQ: 26, IPC: 1.7252
TH2 ROB: 39 LSQ: 8 IQ: 24, IPC: 0.1955
TH3 ROB: 31 LSQ: 23 IQ: 27, IPC: 0.2472
EPOCH ENDS
EPOCH STARTS
TH0 ROB: 32 LSQ: 13 IQ: 22 IPC: 0.2232
TH1 ROB: 27 LSQ: 8 IQ: 23, IPC: 1.7176
TH2 ROB: 33 LSQ: 16 IQ: 32, IPC: 0.1986
TH3 ROB: 37 LSQ: 23 IQ: 19, IPC: 0.2513
EPOCH ENDS
EPOCH STARTS
TH0 ROB: 33 LSQ: 6 IQ: 29 IPC: 0.2268
TH1 ROB: 39 LSQ: 12 IQ: 35, IPC: 1.7101
TH2 ROB: 30 LSQ: 11 IQ: 23, IPC: 0.2018
TH3 ROB: 15 LSQ: 9 IQ: 9, IPC: 0.2552
EPOCH ENDS
EPOCH STARTS
TH0 ROB: 23 LSQ: 4 IQ: 19 IPC: 0.2303
TH1 ROB: 32 LSQ: 9 IQ: 28, IPC: 1.7027
TH2 ROB: 39 LSQ: 16 IQ: 33, IPC: 0.2050
TH3 ROB: 22 LSQ: 13 IQ: 16, IPC: 0.2591
EPOCH ENDS
EPOCH STARTS
TH0 ROB: 13 LSQ: 2 IQ: 8 IPC: 0.2338
TH1 ROB: 33 LSQ: 10 IQ: 22, IPC: 1.6953
TH2 ROB: 37 LSQ: 12 IQ: 33, IPC: 0.2081
TH3 ROB: 38 LSQ: 6 IQ: 33, IPC: 0.2629
EPOCH ENDS
EPOCH STARTS
TH0 ROB: 23 LSQ: 10 IQ: 4 IPC: 0.2372
TH1 ROB: 21 LSQ: 7 IQ: 17, IPC: 1.6881
TH2 ROB: 55 LSQ: 12 IQ: 45, IPC: 0.2111
TH3 ROB: 34 LSQ: 25 IQ: 30, IPC: 0.2668
EPOCH ENDS
EPOCH STARTS
TH0 ROB: 25 LSQ: 10 IQ: 21 IPC: 0.2406
TH1 ROB: 38 LSQ: 13 IQ: 30, IPC: 1.6810
TH2 ROB: 38 LSQ: 15 IQ: 34, IPC: 0.2141
TH3 ROB: 21 LSQ: 13 IQ: 11, IPC: 0.2706
EPOCH ENDS
EPOCH STARTS
TH0 ROB: 24 LSQ: 6 IQ: 17 IPC: 0.2439
TH1 ROB: 12 LSQ: 4 IQ: 8, IPC: 1.6741
TH2 ROB: 39 LSQ: 17 IQ: 36, IPC: 0.2169
TH3 ROB: 41 LSQ: 29 IQ: 35, IPC: 0.2744
EPOCH ENDS
EPOCH STARTS
TH0 ROB: 19 LSQ: 5 IQ: 15 IPC: 0.2471
TH1 ROB: 5 LSQ: 2 IQ: 0, IPC: 1.6672
TH2 ROB: 43 LSQ: 24 IQ: 25, IPC: 0.2198
TH3 ROB: 61 LSQ: 37 IQ: 56, IPC: 0.2780
EPOCH ENDS
EPOCH STARTS
TH0 ROB: 34 LSQ: 8 IQ: 20 IPC: 0.2502
TH1 ROB: 34 LSQ: 11 IQ: 34, IPC: 1.6606
TH2 ROB: 34 LSQ: 14 IQ: 27, IPC: 0.2226
TH3 ROB: 21 LSQ: 15 IQ: 15, IPC: 0.2816
EPOCH ENDS
EPOCH STARTS
TH0 ROB: 19 LSQ: 4 IQ: 5 IPC: 0.2533
TH1 ROB: 22 LSQ: 7 IQ: 14, IPC: 1.6539
TH2 ROB: 62 LSQ: 22 IQ: 58, IPC: 0.2254
TH3 ROB: 23 LSQ: 15 IQ: 19, IPC: 0.2853
EPOCH ENDS
EPOCH STARTS
TH0 ROB: 39 LSQ: 10 IQ: 35 IPC: 0.2564
TH1 ROB: 31 LSQ: 10 IQ: 27, IPC: 1.6473
TH2 ROB: 32 LSQ: 12 IQ: 24, IPC: 0.2283
TH3 ROB: 21 LSQ: 12 IQ: 10, IPC: 0.2887
EPOCH ENDS
EPOCH STARTS
TH0 ROB: 25 LSQ: 6 IQ: 19 IPC: 0.2595
TH1 ROB: 54 LSQ: 16 IQ: 50, IPC: 1.6408
TH2 ROB: 31 LSQ: 14 IQ: 27, IPC: 0.2311
TH3 ROB: 8 LSQ: 4 IQ: 0, IPC: 0.2922
EPOCH ENDS
EPOCH STARTS
TH0 ROB: 16 LSQ: 5 IQ: 11 IPC: 0.2624
TH1 ROB: 23 LSQ: 6 IQ: 16, IPC: 1.6345
TH2 ROB: 76 LSQ: 28 IQ: 58, IPC: 0.2337
TH3 ROB: 18 LSQ: 10 IQ: 11, IPC: 0.2955
EPOCH ENDS
EPOCH STARTS
TH0 ROB: 34 LSQ: 12 IQ: 29 IPC: 0.2655
TH1 ROB: 23 LSQ: 8 IQ: 19, IPC: 1.6282
TH2 ROB: 40 LSQ: 17 IQ: 34, IPC: 0.2365
TH3 ROB: 22 LSQ: 13 IQ: 14, IPC: 0.2988
EPOCH ENDS
EPOCH STARTS
TH0 ROB: 24 LSQ: 16 IQ: 20 IPC: 0.2685
TH1 ROB: 32 LSQ: 10 IQ: 23, IPC: 1.6220
TH2 ROB: 20 LSQ: 8 IQ: 13, IPC: 0.2390
TH3 ROB: 46 LSQ: 26 IQ: 40, IPC: 0.3021
EPOCH ENDS
EPOCH STARTS
TH0 ROB: 23 LSQ: 3 IQ: 19 IPC: 0.2714
TH1 ROB: 33 LSQ: 10 IQ: 27, IPC: 1.6160
TH2 ROB: 24 LSQ: 7 IQ: 12, IPC: 0.2415
TH3 ROB: 44 LSQ: 30 IQ: 38, IPC: 0.3054
EPOCH ENDS
EPOCH STARTS
TH0 ROB: 13 LSQ: 7 IQ: 9 IPC: 0.2743
TH1 ROB: 61 LSQ: 20 IQ: 38, IPC: 1.6101
TH2 ROB: 28 LSQ: 9 IQ: 26, IPC: 0.2439
TH3 ROB: 27 LSQ: 14 IQ: 23, IPC: 0.3086
EPOCH ENDS
EPOCH STARTS
TH0 ROB: 31 LSQ: 14 IQ: 25 IPC: 0.2771
TH1 ROB: 26 LSQ: 8 IQ: 22, IPC: 1.6041
TH2 ROB: 18 LSQ: 7 IQ: 14, IPC: 0.2464
TH3 ROB: 38 LSQ: 27 IQ: 35, IPC: 0.3117
EPOCH ENDS
EPOCH STARTS
TH0 ROB: 17 LSQ: 8 IQ: 12 IPC: 0.2799
TH1 ROB: 59 LSQ: 19 IQ: 54, IPC: 1.5982
TH2 ROB: 21 LSQ: 4 IQ: 17, IPC: 0.2489
TH3 ROB: 20 LSQ: 12 IQ: 13, IPC: 0.3148
EPOCH ENDS
EPOCH STARTS
TH0 ROB: 13 LSQ: 4 IQ: 5 IPC: 0.2825
TH1 ROB: 22 LSQ: 7 IQ: 16, IPC: 1.5923
TH2 ROB: 61 LSQ: 3 IQ: 57, IPC: 0.2515
TH3 ROB: 22 LSQ: 12 IQ: 18, IPC: 0.3179
EPOCH ENDS
EPOCH STARTS
TH0 ROB: 55 LSQ: 27 IQ: 28 IPC: 0.2853
TH1 ROB: 24 LSQ: 8 IQ: 19, IPC: 1.5865
TH2 ROB: 21 LSQ: 7 IQ: 14, IPC: 0.2539
TH3 ROB: 35 LSQ: 24 IQ: 35, IPC: 0.3209
EPOCH ENDS
EPOCH STARTS
TH0 ROB: 44 LSQ: 25 IQ: 24 IPC: 0.2880
TH1 ROB: 40 LSQ: 13 IQ: 32, IPC: 1.5808
TH2 ROB: 31 LSQ: 7 IQ: 26, IPC: 0.2564
TH3 ROB: 18 LSQ: 11 IQ: 14, IPC: 0.3239
EPOCH ENDS
EPOCH STARTS
TH0 ROB: 42 LSQ: 22 IQ: 38 IPC: 0.2905
TH1 ROB: 21 LSQ: 7 IQ: 17, IPC: 1.5752
TH2 ROB: 15 LSQ: 4 IQ: 11, IPC: 0.2588
TH3 ROB: 35 LSQ: 21 IQ: 30, IPC: 0.3269
EPOCH ENDS
EPOCH STARTS
TH0 ROB: 31 LSQ: 5 IQ: 27 IPC: 0.2931
TH1 ROB: 25 LSQ: 7 IQ: 14, IPC: 1.5699
TH2 ROB: 22 LSQ: 9 IQ: 14, IPC: 0.2613
TH3 ROB: 42 LSQ: 29 IQ: 41, IPC: 0.3296
EPOCH ENDS
EPOCH STARTS
TH0 ROB: 29 LSQ: 6 IQ: 18 IPC: 0.2957
TH1 ROB: 27 LSQ: 9 IQ: 23, IPC: 1.5644
TH2 ROB: 32 LSQ: 9 IQ: 32, IPC: 0.2637
TH3 ROB: 29 LSQ: 15 IQ: 23, IPC: 0.3324
EPOCH ENDS
EPOCH STARTS
TH0 ROB: 33 LSQ: 15 IQ: 31 IPC: 0.2982
TH1 ROB: 32 LSQ: 10 IQ: 25, IPC: 1.5591
TH2 ROB: 21 LSQ: 5 IQ: 17, IPC: 0.2659
TH3 ROB: 30 LSQ: 17 IQ: 23, IPC: 0.3353
EPOCH ENDS
EPOCH STARTS
TH0 ROB: 31 LSQ: 19 IQ: 26 IPC: 0.3007
TH1 ROB: 42 LSQ: 13 IQ: 40, IPC: 1.5538
TH2 ROB: 12 LSQ: 2 IQ: 8, IPC: 0.2681
TH3 ROB: 31 LSQ: 17 IQ: 22, IPC: 0.3382
EPOCH ENDS
EPOCH STARTS
TH0 ROB: 37 LSQ: 12 IQ: 28 IPC: 0.3032
TH1 ROB: 12 LSQ: 4 IQ: 6, IPC: 1.5486
TH2 ROB: 31 LSQ: 15 IQ: 28, IPC: 0.2703
TH3 ROB: 38 LSQ: 22 IQ: 34, IPC: 0.3409
EPOCH ENDS
EPOCH STARTS
TH0 ROB: 35 LSQ: 6 IQ: 29 IPC: 0.3056
TH1 ROB: 14 LSQ: 5 IQ: 10, IPC: 1.5435
TH2 ROB: 24 LSQ: 5 IQ: 20, IPC: 0.2724
TH3 ROB: 46 LSQ: 30 IQ: 37, IPC: 0.3436
EPOCH ENDS
EPOCH STARTS
TH0 ROB: 25 LSQ: 4 IQ: 21 IPC: 0.3081
TH1 ROB: 55 LSQ: 17 IQ: 45, IPC: 1.5384
TH2 ROB: 25 LSQ: 7 IQ: 23, IPC: 0.2745
TH3 ROB: 11 LSQ: 8 IQ: 7, IPC: 0.3463
EPOCH ENDS
EPOCH STARTS
TH0 ROB: 30 LSQ: 8 IQ: 23 IPC: 0.3106
TH1 ROB: 30 LSQ: 9 IQ: 26, IPC: 1.5334
TH2 ROB: 33 LSQ: 16 IQ: 29, IPC: 0.2766
TH3 ROB: 30 LSQ: 21 IQ: 18, IPC: 0.3489
EPOCH ENDS
EPOCH STARTS
TH0 ROB: 20 LSQ: 5 IQ: 12 IPC: 0.3130
TH1 ROB: 12 LSQ: 4 IQ: 6, IPC: 1.5284
TH2 ROB: 45 LSQ: 15 IQ: 38, IPC: 0.2786
TH3 ROB: 40 LSQ: 24 IQ: 40, IPC: 0.3516
EPOCH ENDS
EPOCH STARTS
TH0 ROB: 33 LSQ: 9 IQ: 25 IPC: 0.3153
TH1 ROB: 26 LSQ: 8 IQ: 14, IPC: 1.5235
TH2 ROB: 44 LSQ: 9 IQ: 40, IPC: 0.2807
TH3 ROB: 21 LSQ: 13 IQ: 17, IPC: 0.3541
EPOCH ENDS
EPOCH STARTS
TH0 ROB: 38 LSQ: 12 IQ: 30 IPC: 0.3175
TH1 ROB: 50 LSQ: 16 IQ: 44, IPC: 1.5187
TH2 ROB: 21 LSQ: 6 IQ: 16, IPC: 0.2829
TH3 ROB: 11 LSQ: 6 IQ: 6, IPC: 0.3566
EPOCH ENDS
EPOCH STARTS
TH0 ROB: 4 LSQ: 2 IQ: 4 IPC: 0.3198
TH1 ROB: 33 LSQ: 11 IQ: 26, IPC: 1.5141
TH2 ROB: 22 LSQ: 10 IQ: 20, IPC: 0.2849
TH3 ROB: 43 LSQ: 28 IQ: 37, IPC: 0.3590
EPOCH ENDS
EPOCH STARTS
TH0 ROB: 24 LSQ: 7 IQ: 19 IPC: 0.3219
TH1 ROB: 32 LSQ: 11 IQ: 26, IPC: 1.5093
TH2 ROB: 0 LSQ: 0 IQ: 0, IPC: 0.2868
TH3 ROB: 25 LSQ: 18 IQ: 21, IPC: 0.3617
EPOCH ENDS
EPOCH STARTS
TH0 ROB: 30 LSQ: 7 IQ: 26 IPC: 0.3242
TH1 ROB: 27 LSQ: 8 IQ: 23, IPC: 1.5046
TH2 ROB: 33 LSQ: 14 IQ: 21, IPC: 0.2887
TH3 ROB: 30 LSQ: 17 IQ: 26, IPC: 0.3641
EPOCH ENDS
EPOCH STARTS
TH0 ROB: 26 LSQ: 7 IQ: 22 IPC: 0.3263
TH1 ROB: 34 LSQ: 10 IQ: 24, IPC: 1.4998
TH2 ROB: 22 LSQ: 6 IQ: 15, IPC: 0.2907
TH3 ROB: 39 LSQ: 25 IQ: 35, IPC: 0.3667
EPOCH ENDS
EPOCH STARTS
TH0 ROB: 41 LSQ: 11 IQ: 33 IPC: 0.3284
TH1 ROB: 29 LSQ: 9 IQ: 24, IPC: 1.4952
TH2 ROB: 31 LSQ: 5 IQ: 26, IPC: 0.2926
TH3 ROB: 21 LSQ: 11 IQ: 13, IPC: 0.3693
EPOCH ENDS
EPOCH STARTS
TH0 ROB: 36 LSQ: 8 IQ: 30 IPC: 0.3306
TH1 ROB: 34 LSQ: 10 IQ: 28, IPC: 1.4908
TH2 ROB: 15 LSQ: 4 IQ: 11, IPC: 0.2946
TH3 ROB: 31 LSQ: 19 IQ: 27, IPC: 0.3715
EPOCH ENDS
EPOCH STARTS
TH0 ROB: 35 LSQ: 18 IQ: 31 IPC: 0.3328
TH1 ROB: 26 LSQ: 8 IQ: 22, IPC: 1.4864
TH2 ROB: 29 LSQ: 11 IQ: 18, IPC: 0.2966
TH3 ROB: 98 LSQ: 56 IQ: 25, IPC: 0.3736
EPOCH ENDS
EPOCH STARTS
TH0 ROB: 31 LSQ: 5 IQ: 18 IPC: 0.3349
TH1 ROB: 26 LSQ: 8 IQ: 19, IPC: 1.4821
TH2 ROB: 34 LSQ: 11 IQ: 34, IPC: 0.2985
TH3 ROB: 29 LSQ: 13 IQ: 25, IPC: 0.3760
EPOCH ENDS
EPOCH STARTS
TH0 ROB: 20 LSQ: 3 IQ: 16 IPC: 0.3371
TH1 ROB: 34 LSQ: 10 IQ: 30, IPC: 1.4779
TH2 ROB: 36 LSQ: 11 IQ: 20, IPC: 0.3005
TH3 ROB: 34 LSQ: 17 IQ: 30, IPC: 0.3783
EPOCH ENDS
EPOCH STARTS
TH0 ROB: 65 LSQ: 28 IQ: 24 IPC: 0.3392
TH1 ROB: 33 LSQ: 10 IQ: 28, IPC: 1.4737
TH2 ROB: 8 LSQ: 3 IQ: 4, IPC: 0.3025
TH3 ROB: 44 LSQ: 24 IQ: 40, IPC: 0.3805
EPOCH ENDS
EPOCH STARTS
TH0 ROB: 25 LSQ: 9 IQ: 15 IPC: 0.3414
TH1 ROB: 34 LSQ: 11 IQ: 27, IPC: 1.4695
TH2 ROB: 22 LSQ: 9 IQ: 18, IPC: 0.3044
TH3 ROB: 38 LSQ: 20 IQ: 36, IPC: 0.3828
EPOCH ENDS
EPOCH STARTS
TH0 ROB: 33 LSQ: 10 IQ: 28 IPC: 0.3435
TH1 ROB: 44 LSQ: 13 IQ: 42, IPC: 1.4654
TH2 ROB: 17 LSQ: 6 IQ: 9, IPC: 0.3063
TH3 ROB: 21 LSQ: 14 IQ: 17, IPC: 0.3850
EPOCH ENDS
EPOCH STARTS
TH0 ROB: 27 LSQ: 18 IQ: 23 IPC: 0.3455
TH1 ROB: 33 LSQ: 10 IQ: 23, IPC: 1.4613
TH2 ROB: 19 LSQ: 4 IQ: 12, IPC: 0.3082
TH3 ROB: 40 LSQ: 22 IQ: 38, IPC: 0.3872
EPOCH ENDS
EPOCH STARTS
TH0 ROB: 34 LSQ: 8 IQ: 22 IPC: 0.3475
TH1 ROB: 30 LSQ: 10 IQ: 21, IPC: 1.4573
TH2 ROB: 13 LSQ: 4 IQ: 9, IPC: 0.3101
TH3 ROB: 51 LSQ: 29 IQ: 44, IPC: 0.3893
EPOCH ENDS
EPOCH STARTS
TH0 ROB: 19 LSQ: 4 IQ: 15 IPC: 0.3495
TH1 ROB: 48 LSQ: 15 IQ: 44, IPC: 1.4534
TH2 ROB: 25 LSQ: 11 IQ: 17, IPC: 0.3119
TH3 ROB: 24 LSQ: 12 IQ: 20, IPC: 0.3915
EPOCH ENDS
EPOCH STARTS
TH0 ROB: 23 LSQ: 8 IQ: 12 IPC: 0.3515
TH1 ROB: 37 LSQ: 11 IQ: 32, IPC: 1.4495
TH2 ROB: 24 LSQ: 6 IQ: 20, IPC: 0.3136
TH3 ROB: 38 LSQ: 20 IQ: 32, IPC: 0.3937
EPOCH ENDS
EPOCH STARTS
TH0 ROB: 44 LSQ: 15 IQ: 44 IPC: 0.3535
TH1 ROB: 30 LSQ: 9 IQ: 18, IPC: 1.4456
TH2 ROB: 11 LSQ: 6 IQ: 5, IPC: 0.3153
TH3 ROB: 40 LSQ: 21 IQ: 29, IPC: 0.3958
EPOCH ENDS
EPOCH STARTS
TH0 ROB: 33 LSQ: 12 IQ: 18 IPC: 0.3555
TH1 ROB: 25 LSQ: 8 IQ: 21, IPC: 1.4417
TH2 ROB: 28 LSQ: 7 IQ: 24, IPC: 0.3169
TH3 ROB: 37 LSQ: 20 IQ: 33, IPC: 0.3980
EPOCH ENDS
EPOCH STARTS
TH0 ROB: 17 LSQ: 3 IQ: 13 IPC: 0.3574
TH1 ROB: 40 LSQ: 13 IQ: 40, IPC: 1.4379
TH2 ROB: 44 LSQ: 13 IQ: 29, IPC: 0.3187
TH3 ROB: 18 LSQ: 6 IQ: 14, IPC: 0.4001
EPOCH ENDS
EPOCH STARTS
TH0 ROB: 20 LSQ: 11 IQ: 16 IPC: 0.3593
TH1 ROB: 49 LSQ: 16 IQ: 40, IPC: 1.4342
TH2 ROB: 35 LSQ: 8 IQ: 28, IPC: 0.3204
TH3 ROB: 16 LSQ: 11 IQ: 12, IPC: 0.4021
EPOCH ENDS
EPOCH STARTS
TH0 ROB: 32 LSQ: 11 IQ: 26 IPC: 0.3612
TH1 ROB: 23 LSQ: 7 IQ: 17, IPC: 1.4305
TH2 ROB: 42 LSQ: 10 IQ: 40, IPC: 0.3222
TH3 ROB: 20 LSQ: 14 IQ: 13, IPC: 0.4041
EPOCH ENDS
EPOCH STARTS
TH0 ROB: 24 LSQ: 10 IQ: 16 IPC: 0.3631
TH1 ROB: 56 LSQ: 19 IQ: 45, IPC: 1.4269
TH2 ROB: 17 LSQ: 6 IQ: 13, IPC: 0.3238
TH3 ROB: 26 LSQ: 18 IQ: 22, IPC: 0.4060
EPOCH ENDS
EPOCH STARTS
TH0 ROB: 37 LSQ: 12 IQ: 29 IPC: 0.3650
TH1 ROB: 33 LSQ: 10 IQ: 25, IPC: 1.4231
TH2 ROB: 8 LSQ: 5 IQ: 4, IPC: 0.3255
TH3 ROB: 16 LSQ: 10 IQ: 16, IPC: 0.4080
EPOCH ENDS
EPOCH STARTS
TH0 ROB: 31 LSQ: 5 IQ: 24 IPC: 0.3668
TH1 ROB: 30 LSQ: 8 IQ: 22, IPC: 1.4195
TH2 ROB: 32 LSQ: 11 IQ: 28, IPC: 0.3272
TH3 ROB: 25 LSQ: 6 IQ: 22, IPC: 0.4100
EPOCH ENDS
EPOCH STARTS
TH0 ROB: 32 LSQ: 8 IQ: 21 IPC: 0.3686
TH1 ROB: 37 LSQ: 11 IQ: 27, IPC: 1.4160
TH2 ROB: 17 LSQ: 9 IQ: 11, IPC: 0.3289
TH3 ROB: 41 LSQ: 22 IQ: 37, IPC: 0.4119
EPOCH ENDS
EPOCH STARTS
TH0 ROB: 39 LSQ: 7 IQ: 32 IPC: 0.3704
TH1 ROB: 36 LSQ: 11 IQ: 32, IPC: 1.4125
TH2 ROB: 27 LSQ: 4 IQ: 21, IPC: 0.3304
TH3 ROB: 15 LSQ: 11 IQ: 11, IPC: 0.4138
EPOCH ENDS
EPOCH STARTS
TH0 ROB: 21 LSQ: 6 IQ: 10 IPC: 0.3722
TH1 ROB: 20 LSQ: 7 IQ: 13, IPC: 1.4090
TH2 ROB: 37 LSQ: 11 IQ: 37, IPC: 0.3319
TH3 ROB: 43 LSQ: 22 IQ: 36, IPC: 0.4159
EPOCH ENDS
EPOCH STARTS
TH0 ROB: 32 LSQ: 9 IQ: 28 IPC: 0.3739
TH1 ROB: 30 LSQ: 10 IQ: 26, IPC: 1.4056
TH2 ROB: 39 LSQ: 9 IQ: 32, IPC: 0.3334
TH3 ROB: 16 LSQ: 4 IQ: 10, IPC: 0.4178
EPOCH ENDS
EPOCH STARTS
TH0 ROB: 28 LSQ: 5 IQ: 21 IPC: 0.3756
TH1 ROB: 34 LSQ: 12 IQ: 26, IPC: 1.4022
TH2 ROB: 16 LSQ: 5 IQ: 12, IPC: 0.3349
TH3 ROB: 29 LSQ: 19 IQ: 25, IPC: 0.4197
EPOCH ENDS
EPOCH STARTS
TH0 ROB: 37 LSQ: 21 IQ: 35 IPC: 0.3773
TH1 ROB: 27 LSQ: 8 IQ: 23, IPC: 1.3989
TH2 ROB: 27 LSQ: 6 IQ: 20, IPC: 0.3364
TH3 ROB: 23 LSQ: 10 IQ: 18, IPC: 0.4215
EPOCH ENDS
EPOCH STARTS
TH0 ROB: 17 LSQ: 3 IQ: 13 IPC: 0.3791
TH1 ROB: 34 LSQ: 11 IQ: 30, IPC: 1.3956
TH2 ROB: 30 LSQ: 13 IQ: 24, IPC: 0.3379
TH3 ROB: 36 LSQ: 18 IQ: 29, IPC: 0.4233
EPOCH ENDS
EPOCH STARTS
TH0 ROB: 20 LSQ: 8 IQ: 16 IPC: 0.3808
TH1 ROB: 50 LSQ: 15 IQ: 38, IPC: 1.3923
TH2 ROB: 19 LSQ: 10 IQ: 14, IPC: 0.3393
TH3 ROB: 33 LSQ: 19 IQ: 28, IPC: 0.4252
EPOCH ENDS
EPOCH STARTS
TH0 ROB: 41 LSQ: 10 IQ: 31 IPC: 0.3824
TH1 ROB: 25 LSQ: 7 IQ: 18, IPC: 1.3891
TH2 ROB: 39 LSQ: 16 IQ: 34, IPC: 0.3408
TH3 ROB: 18 LSQ: 12 IQ: 13, IPC: 0.4269
EPOCH ENDS
EPOCH STARTS
TH0 ROB: 22 LSQ: 10 IQ: 15 IPC: 0.3841
TH1 ROB: 39 LSQ: 12 IQ: 35, IPC: 1.3858
TH2 ROB: 41 LSQ: 17 IQ: 38, IPC: 0.3422
TH3 ROB: 12 LSQ: 9 IQ: 8, IPC: 0.4287
EPOCH ENDS
EPOCH STARTS
TH0 ROB: 27 LSQ: 18 IQ: 23 IPC: 0.3857
TH1 ROB: 29 LSQ: 9 IQ: 22, IPC: 1.3827
TH2 ROB: 30 LSQ: 10 IQ: 26, IPC: 0.3437
TH3 ROB: 32 LSQ: 20 IQ: 25, IPC: 0.4304
EPOCH ENDS
EPOCH STARTS
TH0 ROB: 36 LSQ: 7 IQ: 26 IPC: 0.3873
TH1 ROB: 7 LSQ: 2 IQ: 3, IPC: 1.3796
TH2 ROB: 35 LSQ: 10 IQ: 35, IPC: 0.3450
TH3 ROB: 42 LSQ: 21 IQ: 32, IPC: 0.4322
EPOCH ENDS
EPOCH STARTS
TH0 ROB: 27 LSQ: 9 IQ: 21 IPC: 0.3890
TH1 ROB: 27 LSQ: 9 IQ: 22, IPC: 1.3764
TH2 ROB: 26 LSQ: 6 IQ: 20, IPC: 0.3465
TH3 ROB: 37 LSQ: 19 IQ: 33, IPC: 0.4339
EPOCH ENDS
EPOCH STARTS
TH0 ROB: 27 LSQ: 16 IQ: 21 IPC: 0.3906
TH1 ROB: 53 LSQ: 17 IQ: 40, IPC: 1.3734
TH2 ROB: 8 LSQ: 2 IQ: 4, IPC: 0.3478
TH3 ROB: 33 LSQ: 15 IQ: 31, IPC: 0.4355
EPOCH ENDS
EPOCH STARTS
TH0 ROB: 25 LSQ: 5 IQ: 20 IPC: 0.3921
TH1 ROB: 33 LSQ: 11 IQ: 26, IPC: 1.3703
TH2 ROB: 26 LSQ: 10 IQ: 20, IPC: 0.3493
TH3 ROB: 35 LSQ: 19 IQ: 30, IPC: 0.4372
EPOCH ENDS
EPOCH STARTS
TH0 ROB: 32 LSQ: 5 IQ: 27 IPC: 0.3936
TH1 ROB: 42 LSQ: 13 IQ: 39, IPC: 1.3673
TH2 ROB: 25 LSQ: 6 IQ: 16, IPC: 0.3507
TH3 ROB: 19 LSQ: 13 IQ: 14, IPC: 0.4388
EPOCH ENDS
EPOCH STARTS
TH0 ROB: 33 LSQ: 7 IQ: 20 IPC: 0.3951
TH1 ROB: 27 LSQ: 8 IQ: 20, IPC: 1.3644
TH2 ROB: 32 LSQ: 7 IQ: 28, IPC: 0.3521
TH3 ROB: 32 LSQ: 20 IQ: 28, IPC: 0.4405
EPOCH ENDS
EPOCH STARTS
TH0 ROB: 31 LSQ: 19 IQ: 24 IPC: 0.3965
TH1 ROB: 33 LSQ: 10 IQ: 32, IPC: 1.3614
TH2 ROB: 13 LSQ: 4 IQ: 10, IPC: 0.3534
TH3 ROB: 30 LSQ: 18 IQ: 26, IPC: 0.4421
EPOCH ENDS
EPOCH STARTS
TH0 ROB: 10 LSQ: 9 IQ: 5 IPC: 0.3981
TH1 ROB: 28 LSQ: 8 IQ: 28, IPC: 1.3585
TH2 ROB: 53 LSQ: 16 IQ: 49, IPC: 0.3547
TH3 ROB: 29 LSQ: 14 IQ: 14, IPC: 0.4437
EPOCH ENDS
EPOCH STARTS
TH0 ROB: 11 LSQ: 2 IQ: 7 IPC: 0.3995
TH1 ROB: 65 LSQ: 20 IQ: 62, IPC: 1.3556
TH2 ROB: 23 LSQ: 17 IQ: 16, IPC: 0.3561
TH3 ROB: 20 LSQ: 13 IQ: 11, IPC: 0.4453
EPOCH ENDS
EPOCH STARTS
TH0 ROB: 33 LSQ: 14 IQ: 21 IPC: 0.4010
TH1 ROB: 33 LSQ: 10 IQ: 29, IPC: 1.3526
TH2 ROB: 10 LSQ: 3 IQ: 6, IPC: 0.3575
TH3 ROB: 26 LSQ: 14 IQ: 26, IPC: 0.4469
EPOCH ENDS
EPOCH STARTS
TH0 ROB: 50 LSQ: 9 IQ: 33 IPC: 0.4024
TH1 ROB: 23 LSQ: 6 IQ: 13, IPC: 1.3498
TH2 ROB: 42 LSQ: 10 IQ: 41, IPC: 0.3588
TH3 ROB: 12 LSQ: 8 IQ: 9, IPC: 0.4484
EPOCH ENDS
EPOCH STARTS
TH0 ROB: 30 LSQ: 5 IQ: 26 IPC: 0.4038
TH1 ROB: 17 LSQ: 6 IQ: 13, IPC: 1.3470
TH2 ROB: 31 LSQ: 13 IQ: 23, IPC: 0.3602
TH3 ROB: 35 LSQ: 19 IQ: 34, IPC: 0.4499
EPOCH ENDS
EPOCH STARTS
TH0 ROB: 29 LSQ: 20 IQ: 25 IPC: 0.4052
TH1 ROB: 29 LSQ: 10 IQ: 25, IPC: 1.3442
TH2 ROB: 18 LSQ: 4 IQ: 10, IPC: 0.3615
TH3 ROB: 39 LSQ: 20 IQ: 36, IPC: 0.4514
EPOCH ENDS
EPOCH STARTS
TH0 ROB: 12 LSQ: 1 IQ: 8 IPC: 0.4066
TH1 ROB: 25 LSQ: 6 IQ: 21, IPC: 1.3414
TH2 ROB: 44 LSQ: 15 IQ: 36, IPC: 0.3628
TH3 ROB: 36 LSQ: 20 IQ: 31, IPC: 0.4530
EPOCH ENDS
EPOCH STARTS
TH0 ROB: 37 LSQ: 9 IQ: 31 IPC: 0.4079
TH1 ROB: 37 LSQ: 13 IQ: 34, IPC: 1.3386
TH2 ROB: 17 LSQ: 5 IQ: 14, IPC: 0.3640
TH3 ROB: 45 LSQ: 25 IQ: 17, IPC: 0.4545
EPOCH ENDS
EPOCH STARTS
TH0 ROB: 26 LSQ: 7 IQ: 26 IPC: 0.4094
TH1 ROB: 23 LSQ: 7 IQ: 17, IPC: 1.3359
TH2 ROB: 19 LSQ: 5 IQ: 16, IPC: 0.3651
TH3 ROB: 25 LSQ: 11 IQ: 23, IPC: 0.4561
EPOCH ENDS
EPOCH STARTS
TH0 ROB: 42 LSQ: 8 IQ: 39 IPC: 0.4107
TH1 ROB: 34 LSQ: 11 IQ: 30, IPC: 1.3333
TH2 ROB: 9 LSQ: 3 IQ: 5, IPC: 0.3662
TH3 ROB: 34 LSQ: 18 IQ: 22, IPC: 0.4576
EPOCH ENDS
EPOCH STARTS
TH0 ROB: 40 LSQ: 10 IQ: 38 IPC: 0.4121
TH1 ROB: 16 LSQ: 6 IQ: 12, IPC: 1.3307
TH2 ROB: 24 LSQ: 9 IQ: 15, IPC: 0.3673
TH3 ROB: 36 LSQ: 18 IQ: 31, IPC: 0.4591
EPOCH ENDS
EPOCH STARTS
TH0 ROB: 30 LSQ: 14 IQ: 24 IPC: 0.4135
TH1 ROB: 32 LSQ: 11 IQ: 26, IPC: 1.3280
TH2 ROB: 28 LSQ: 8 IQ: 23, IPC: 0.3685
TH3 ROB: 29 LSQ: 14 IQ: 23, IPC: 0.4605
EPOCH ENDS
EPOCH STARTS
TH0 ROB: 39 LSQ: 12 IQ: 35 IPC: 0.4148
TH1 ROB: 33 LSQ: 10 IQ: 27, IPC: 1.3254
TH2 ROB: 27 LSQ: 11 IQ: 23, IPC: 0.3697
TH3 ROB: 24 LSQ: 10 IQ: 11, IPC: 0.4619
EPOCH ENDS
EPOCH STARTS
TH0 ROB: 33 LSQ: 12 IQ: 24 IPC: 0.4162
TH1 ROB: 37 LSQ: 11 IQ: 34, IPC: 1.3228
TH2 ROB: 17 LSQ: 12 IQ: 13, IPC: 0.3709
TH3 ROB: 30 LSQ: 16 IQ: 25, IPC: 0.4633
EPOCH ENDS
EPOCH STARTS
TH0 ROB: 34 LSQ: 3 IQ: 23 IPC: 0.4175
TH1 ROB: 31 LSQ: 10 IQ: 26, IPC: 1.3203
TH2 ROB: 36 LSQ: 15 IQ: 29, IPC: 0.3720
TH3 ROB: 23 LSQ: 10 IQ: 18, IPC: 0.4647
EPOCH ENDS
EPOCH STARTS
TH0 ROB: 22 LSQ: 15 IQ: 18 IPC: 0.4185
TH1 ROB: 37 LSQ: 12 IQ: 30, IPC: 1.3179
TH2 ROB: 1 LSQ: 0 IQ: 0, IPC: 0.3732
TH3 ROB: 50 LSQ: 29 IQ: 44, IPC: 0.4662
EPOCH ENDS
EPOCH STARTS
TH0 ROB: 45 LSQ: 13 IQ: 32 IPC: 0.4198
TH1 ROB: 22 LSQ: 8 IQ: 16, IPC: 1.3153
TH2 ROB: 35 LSQ: 13 IQ: 29, IPC: 0.3744
TH3 ROB: 23 LSQ: 17 IQ: 19, IPC: 0.4675
EPOCH ENDS
EPOCH STARTS
TH0 ROB: 31 LSQ: 19 IQ: 25 IPC: 0.4210
TH1 ROB: 27 LSQ: 8 IQ: 20, IPC: 1.3128
TH2 ROB: 29 LSQ: 16 IQ: 24, IPC: 0.3755
TH3 ROB: 33 LSQ: 20 IQ: 27, IPC: 0.4689
EPOCH ENDS
EPOCH STARTS
TH0 ROB: 88 LSQ: 29 IQ: 21 IPC: 0.4223
TH1 ROB: 28 LSQ: 9 IQ: 25, IPC: 1.3103
TH2 ROB: 7 LSQ: 2 IQ: 7, IPC: 0.3766
TH3 ROB: 36 LSQ: 20 IQ: 35, IPC: 0.4702
EPOCH ENDS
EPOCH STARTS
TH0 ROB: 20 LSQ: 9 IQ: 16 IPC: 0.4236
TH1 ROB: 20 LSQ: 6 IQ: 16, IPC: 1.3078
TH2 ROB: 45 LSQ: 19 IQ: 42, IPC: 0.3776
TH3 ROB: 32 LSQ: 16 IQ: 22, IPC: 0.4716
EPOCH ENDS
EPOCH STARTS
TH0 ROB: 25 LSQ: 9 IQ: 21 IPC: 0.4249
TH1 ROB: 21 LSQ: 6 IQ: 17, IPC: 1.3054
TH2 ROB: 29 LSQ: 12 IQ: 28, IPC: 0.3787
TH3 ROB: 57 LSQ: 27 IQ: 30, IPC: 0.4728
EPOCH ENDS
EPOCH STARTS
TH0 ROB: 21 LSQ: 3 IQ: 13 IPC: 0.4262
TH1 ROB: 32 LSQ: 11 IQ: 27, IPC: 1.3029
TH2 ROB: 40 LSQ: 17 IQ: 34, IPC: 0.3797
TH3 ROB: 26 LSQ: 12 IQ: 22, IPC: 0.4742
EPOCH ENDS
EPOCH STARTS
TH0 ROB: 57 LSQ: 27 IQ: 42 IPC: 0.4274
TH1 ROB: 35 LSQ: 12 IQ: 28, IPC: 1.3005
TH2 ROB: 22 LSQ: 6 IQ: 16, IPC: 0.3807
TH3 ROB: 14 LSQ: 4 IQ: 10, IPC: 0.4755
EPOCH ENDS
EPOCH STARTS
TH0 ROB: 16 LSQ: 8 IQ: 12 IPC: 0.4287
TH1 ROB: 32 LSQ: 10 IQ: 31, IPC: 1.2981
TH2 ROB: 36 LSQ: 18 IQ: 29, IPC: 0.3817
TH3 ROB: 31 LSQ: 20 IQ: 24, IPC: 0.4767
EPOCH ENDS
EPOCH STARTS
TH0 ROB: 27 LSQ: 11 IQ: 23 IPC: 0.4299
TH1 ROB: 32 LSQ: 10 IQ: 26, IPC: 1.2957
TH2 ROB: 33 LSQ: 10 IQ: 29, IPC: 0.3827
TH3 ROB: 29 LSQ: 13 IQ: 18, IPC: 0.4781
EPOCH ENDS
EPOCH STARTS
TH0 ROB: 39 LSQ: 12 IQ: 35 IPC: 0.4312
TH1 ROB: 36 LSQ: 12 IQ: 30, IPC: 1.2933
TH2 ROB: 19 LSQ: 9 IQ: 8, IPC: 0.3837
TH3 ROB: 32 LSQ: 16 IQ: 23, IPC: 0.4793
EPOCH ENDS
EPOCH STARTS
TH0 ROB: 28 LSQ: 14 IQ: 22 IPC: 0.4324
TH1 ROB: 32 LSQ: 10 IQ: 25, IPC: 1.2909
TH2 ROB: 15 LSQ: 3 IQ: 15, IPC: 0.3848
TH3 ROB: 29 LSQ: 18 IQ: 23, IPC: 0.4805
EPOCH ENDS
EPOCH STARTS
TH0 ROB: 37 LSQ: 9 IQ: 32 IPC: 0.4336
TH1 ROB: 40 LSQ: 12 IQ: 32, IPC: 1.2886
TH2 ROB: 9 LSQ: 2 IQ: 5, IPC: 0.3856
TH3 ROB: 34 LSQ: 20 IQ: 27, IPC: 0.4819
EPOCH ENDS
EPOCH STARTS
TH0 ROB: 27 LSQ: 9 IQ: 27 IPC: 0.4348
TH1 ROB: 26 LSQ: 7 IQ: 24, IPC: 1.2863
TH2 ROB: 15 LSQ: 5 IQ: 11, IPC: 0.3865
TH3 ROB: 28 LSQ: 13 IQ: 17, IPC: 0.4831
EPOCH ENDS
EPOCH STARTS
TH0 ROB: 41 LSQ: 12 IQ: 37 IPC: 0.4360
TH1 ROB: 22 LSQ: 7 IQ: 13, IPC: 1.2840
TH2 ROB: 17 LSQ: 11 IQ: 12, IPC: 0.3874
TH3 ROB: 38 LSQ: 20 IQ: 34, IPC: 0.4844
EPOCH ENDS
EPOCH STARTS
TH0 ROB: 20 LSQ: 5 IQ: 16 IPC: 0.4371
TH1 ROB: 24 LSQ: 7 IQ: 13, IPC: 1.2817
TH2 ROB: 44 LSQ: 16 IQ: 37, IPC: 0.3885
TH3 ROB: 30 LSQ: 14 IQ: 30, IPC: 0.4856
EPOCH ENDS
EPOCH STARTS
TH0 ROB: 75 LSQ: 31 IQ: 34 IPC: 0.4383
TH1 ROB: 30 LSQ: 10 IQ: 24, IPC: 1.2794
TH2 ROB: 11 LSQ: 4 IQ: 4, IPC: 0.3895
TH3 ROB: 39 LSQ: 20 IQ: 34, IPC: 0.4868
EPOCH ENDS
EPOCH STARTS
TH0 ROB: 38 LSQ: 16 IQ: 33 IPC: 0.4394
TH1 ROB: 35 LSQ: 11 IQ: 32, IPC: 1.2772
TH2 ROB: 8 LSQ: 6 IQ: 4, IPC: 0.3905
TH3 ROB: 32 LSQ: 16 IQ: 27, IPC: 0.4879
EPOCH ENDS
EPOCH STARTS
TH0 ROB: 29 LSQ: 13 IQ: 23 IPC: 0.4405
TH1 ROB: 43 LSQ: 13 IQ: 40, IPC: 1.2750
TH2 ROB: 29 LSQ: 10 IQ: 25, IPC: 0.3915
TH3 ROB: 17 LSQ: 12 IQ: 8, IPC: 0.4891
EPOCH ENDS
EPOCH STARTS
TH0 ROB: 18 LSQ: 3 IQ: 12 IPC: 0.4416
TH1 ROB: 39 LSQ: 12 IQ: 33, IPC: 1.2728
TH2 ROB: 32 LSQ: 12 IQ: 31, IPC: 0.3925
TH3 ROB: 26 LSQ: 13 IQ: 20, IPC: 0.4902
EPOCH ENDS
EPOCH STARTS
TH0 ROB: 27 LSQ: 9 IQ: 21 IPC: 0.4427
TH1 ROB: 39 LSQ: 12 IQ: 31, IPC: 1.2707
TH2 ROB: 38 LSQ: 12 IQ: 33, IPC: 0.3934
TH3 ROB: 18 LSQ: 7 IQ: 11, IPC: 0.4914
EPOCH ENDS
EPOCH STARTS
TH0 ROB: 136 LSQ: 48 IQ: 37 IPC: 0.4434
TH1 ROB: 14 LSQ: 4 IQ: 10, IPC: 1.2687
TH2 ROB: 26 LSQ: 13 IQ: 18, IPC: 0.3944
TH3 ROB: 35 LSQ: 17 IQ: 31, IPC: 0.4926
EPOCH ENDS
EPOCH STARTS
TH0 ROB: 44 LSQ: 15 IQ: 42 IPC: 0.4443
TH1 ROB: 33 LSQ: 12 IQ: 29, IPC: 1.2666
TH2 ROB: 25 LSQ: 6 IQ: 19, IPC: 0.3955
TH3 ROB: 17 LSQ: 9 IQ: 6, IPC: 0.4938
EPOCH ENDS
EPOCH STARTS
TH0 ROB: 20 LSQ: 10 IQ: 16 IPC: 0.4453
TH1 ROB: 23 LSQ: 7 IQ: 19, IPC: 1.2645
TH2 ROB: 42 LSQ: 13 IQ: 29, IPC: 0.3965
TH3 ROB: 36 LSQ: 18 IQ: 32, IPC: 0.4950
EPOCH ENDS
EPOCH STARTS
TH0 ROB: 30 LSQ: 11 IQ: 26 IPC: 0.4462
TH1 ROB: 23 LSQ: 7 IQ: 19, IPC: 1.2624
TH2 ROB: 33 LSQ: 13 IQ: 17, IPC: 0.3975
TH3 ROB: 43 LSQ: 25 IQ: 34, IPC: 0.4961
EPOCH ENDS
EPOCH STARTS
TH0 ROB: 31 LSQ: 9 IQ: 17 IPC: 0.4471
TH1 ROB: 40 LSQ: 12 IQ: 39, IPC: 1.2604
TH2 ROB: 14 LSQ: 4 IQ: 10, IPC: 0.3984
TH3 ROB: 41 LSQ: 21 IQ: 30, IPC: 0.4973
EPOCH ENDS
EPOCH STARTS
TH0 ROB: 21 LSQ: 8 IQ: 11 IPC: 0.4480
TH1 ROB: 38 LSQ: 13 IQ: 33, IPC: 1.2584
TH2 ROB: 81 LSQ: 32 IQ: 34, IPC: 0.3993
TH3 ROB: 22 LSQ: 10 IQ: 18, IPC: 0.4985
EPOCH ENDS
EPOCH STARTS
TH0 ROB: 33 LSQ: 3 IQ: 30 IPC: 0.4490
TH1 ROB: 24 LSQ: 7 IQ: 20, IPC: 1.2564
TH2 ROB: 28 LSQ: 7 IQ: 25, IPC: 0.4001
TH3 ROB: 28 LSQ: 19 IQ: 21, IPC: 0.4997
EPOCH ENDS
EPOCH STARTS
TH0 ROB: 30 LSQ: 3 IQ: 28 IPC: 0.4499
TH1 ROB: 28 LSQ: 9 IQ: 24, IPC: 1.2544
TH2 ROB: 33 LSQ: 11 IQ: 18, IPC: 0.4010
TH3 ROB: 28 LSQ: 6 IQ: 26, IPC: 0.5009
EPOCH ENDS
EPOCH STARTS
TH0 ROB: 37 LSQ: 13 IQ: 29 IPC: 0.4508
TH1 ROB: 38 LSQ: 12 IQ: 34, IPC: 1.2525
TH2 ROB: 27 LSQ: 6 IQ: 18, IPC: 0.4018
TH3 ROB: 21 LSQ: 14 IQ: 15, IPC: 0.5020
EPOCH ENDS
EPOCH STARTS
TH0 ROB: 74 LSQ: 34 IQ: 31 IPC: 0.4519
TH1 ROB: 23 LSQ: 6 IQ: 19, IPC: 1.2505
TH2 ROB: 24 LSQ: 4 IQ: 19, IPC: 0.4026
TH3 ROB: 31 LSQ: 14 IQ: 27, IPC: 0.5030
EPOCH ENDS
EPOCH STARTS
TH0 ROB: 27 LSQ: 6 IQ: 23 IPC: 0.4530
TH1 ROB: 35 LSQ: 10 IQ: 22, IPC: 1.2484
TH2 ROB: 29 LSQ: 11 IQ: 24, IPC: 0.4034
TH3 ROB: 31 LSQ: 15 IQ: 27, IPC: 0.5040
EPOCH ENDS
EPOCH STARTS
TH0 ROB: 29 LSQ: 18 IQ: 22 IPC: 0.4541
TH1 ROB: 19 LSQ: 6 IQ: 13, IPC: 1.2464
TH2 ROB: 38 LSQ: 13 IQ: 33, IPC: 0.4043
TH3 ROB: 33 LSQ: 19 IQ: 28, IPC: 0.5050
EPOCH ENDS
EPOCH STARTS
TH0 ROB: 36 LSQ: 11 IQ: 27 IPC: 0.4551
TH1 ROB: 41 LSQ: 13 IQ: 40, IPC: 1.2444
TH2 ROB: 11 LSQ: 5 IQ: 6, IPC: 0.4051
TH3 ROB: 27 LSQ: 14 IQ: 23, IPC: 0.5061
EPOCH ENDS
EPOCH STARTS
TH0 ROB: 9 LSQ: 2 IQ: 3 IPC: 0.4561
TH1 ROB: 21 LSQ: 7 IQ: 13, IPC: 1.2425
TH2 ROB: 58 LSQ: 20 IQ: 51, IPC: 0.4060
TH3 ROB: 30 LSQ: 16 IQ: 29, IPC: 0.5071
EPOCH ENDS
EPOCH STARTS
TH0 ROB: 0 LSQ: 0 IQ: 0 IPC: 0.4550
TH1 ROB: 37 LSQ: 11 IQ: 26, IPC: 1.2411
TH2 ROB: 41 LSQ: 16 IQ: 38, IPC: 0.4074
TH3 ROB: 35 LSQ: 19 IQ: 32, IPC: 0.5086
EPOCH ENDS
EPOCH STARTS
TH0 ROB: 15 LSQ: 5 IQ: 11 IPC: 0.4545
TH1 ROB: 24 LSQ: 8 IQ: 20, IPC: 1.2397
TH2 ROB: 40 LSQ: 17 IQ: 29, IPC: 0.4086
TH3 ROB: 27 LSQ: 16 IQ: 23, IPC: 0.5101
EPOCH ENDS
EPOCH STARTS
TH0 ROB: 34 LSQ: 6 IQ: 27 IPC: 0.4537
TH1 ROB: 41 LSQ: 13 IQ: 37, IPC: 1.2384
TH2 ROB: 30 LSQ: 15 IQ: 25, IPC: 0.4098
TH3 ROB: 13 LSQ: 9 IQ: 7, IPC: 0.5116
EPOCH ENDS
EPOCH STARTS
TH0 ROB: 0 LSQ: 0 IQ: 0 IPC: 0.4529
TH1 ROB: 43 LSQ: 13 IQ: 40, IPC: 1.2371
TH2 ROB: 44 LSQ: 19 IQ: 29, IPC: 0.4110
TH3 ROB: 33 LSQ: 20 IQ: 27, IPC: 0.5130
EPOCH ENDS
EPOCH STARTS
TH0 ROB: 21 LSQ: 6 IQ: 7 IPC: 0.4532
TH1 ROB: 22 LSQ: 8 IQ: 17, IPC: 1.2354
TH2 ROB: 43 LSQ: 17 IQ: 42, IPC: 0.4120
TH3 ROB: 34 LSQ: 17 IQ: 30, IPC: 0.5142
EPOCH ENDS
EPOCH STARTS
TH0 ROB: 22 LSQ: 7 IQ: 18 IPC: 0.4539
TH1 ROB: 32 LSQ: 10 IQ: 31, IPC: 1.2337
TH2 ROB: 1 LSQ: 0 IQ: 0, IPC: 0.4129
TH3 ROB: 34 LSQ: 18 IQ: 25, IPC: 0.5152
EPOCH ENDS
EPOCH STARTS
TH0 ROB: 1 LSQ: 1 IQ: 1 IPC: 0.4547
TH1 ROB: 29 LSQ: 9 IQ: 23, IPC: 1.2320
TH2 ROB: 29 LSQ: 10 IQ: 20, IPC: 0.4136
TH3 ROB: 39 LSQ: 20 IQ: 38, IPC: 0.5162
EPOCH ENDS
EPOCH STARTS
TH0 ROB: 26 LSQ: 3 IQ: 22 IPC: 0.4551
TH1 ROB: 31 LSQ: 10 IQ: 26, IPC: 1.2304
TH2 ROB: 22 LSQ: 12 IQ: 15, IPC: 0.4147
TH3 ROB: 36 LSQ: 18 IQ: 33, IPC: 0.5174
EPOCH ENDS
EPOCH STARTS
TH0 ROB: 33 LSQ: 11 IQ: 29 IPC: 0.4557
TH1 ROB: 31 LSQ: 9 IQ: 24, IPC: 1.2289
TH2 ROB: 5 LSQ: 0 IQ: 1, IPC: 0.4157
TH3 ROB: 28 LSQ: 13 IQ: 23, IPC: 0.5185
EPOCH ENDS
EPOCH STARTS
TH0 ROB: 22 LSQ: 1 IQ: 18 IPC: 0.4563
TH1 ROB: 25 LSQ: 8 IQ: 24, IPC: 1.2274
TH2 ROB: 30 LSQ: 6 IQ: 25, IPC: 0.4166
TH3 ROB: 30 LSQ: 14 IQ: 18, IPC: 0.5196
EPOCH ENDS
EPOCH STARTS
TH0 ROB: 32 LSQ: 5 IQ: 28 IPC: 0.4568
TH1 ROB: 21 LSQ: 7 IQ: 16, IPC: 1.2259
TH2 ROB: 32 LSQ: 12 IQ: 27, IPC: 0.4174
TH3 ROB: 31 LSQ: 14 IQ: 25, IPC: 0.5208
EPOCH ENDS
EPOCH STARTS
TH0 ROB: 30 LSQ: 1 IQ: 26 IPC: 0.4572
TH1 ROB: 26 LSQ: 7 IQ: 22, IPC: 1.2244
TH2 ROB: 15 LSQ: 6 IQ: 11, IPC: 0.4183
TH3 ROB: 46 LSQ: 26 IQ: 37, IPC: 0.5220
EPOCH ENDS
EPOCH STARTS
TH0 ROB: 28 LSQ: 10 IQ: 24 IPC: 0.4569
TH1 ROB: 30 LSQ: 9 IQ: 25, IPC: 1.2230
TH2 ROB: 27 LSQ: 7 IQ: 21, IPC: 0.4193
TH3 ROB: 29 LSQ: 20 IQ: 24, IPC: 0.5233
EPOCH ENDS
EPOCH STARTS
TH0 ROB: 0 LSQ: 0 IQ: 0 IPC: 0.4577
TH1 ROB: 138 LSQ: 44 IQ: 37, IPC: 1.2212
TH2 ROB: 7 LSQ: 1 IQ: 7, IPC: 0.4201
TH3 ROB: 44 LSQ: 24 IQ: 1, IPC: 0.5242
EPOCH ENDS
EPOCH STARTS
TH0 ROB: 25 LSQ: 9 IQ: 19 IPC: 0.4585
TH1 ROB: 42 LSQ: 14 IQ: 42, IPC: 1.2195
TH2 ROB: 23 LSQ: 10 IQ: 19, IPC: 0.4209
TH3 ROB: 27 LSQ: 11 IQ: 16, IPC: 0.5251
EPOCH ENDS
EPOCH STARTS
TH0 ROB: 87 LSQ: 30 IQ: 39 IPC: 0.4593
TH1 ROB: 20 LSQ: 6 IQ: 16, IPC: 1.2179
TH2 ROB: 27 LSQ: 12 IQ: 21, IPC: 0.4216
TH3 ROB: 30 LSQ: 14 IQ: 20, IPC: 0.5260
EPOCH ENDS
EPOCH STARTS
TH0 ROB: 6 LSQ: 2 IQ: 2 IPC: 0.4601
TH1 ROB: 11 LSQ: 3 IQ: 7, IPC: 1.2162
TH2 ROB: 89 LSQ: 30 IQ: 73, IPC: 0.4223
TH3 ROB: 17 LSQ: 11 IQ: 14, IPC: 0.5268
EPOCH ENDS
EPOCH STARTS
TH0 ROB: 31 LSQ: 11 IQ: 26 IPC: 0.4606
TH1 ROB: 28 LSQ: 9 IQ: 24, IPC: 1.2146
TH2 ROB: 28 LSQ: 11 IQ: 22, IPC: 0.4231
TH3 ROB: 30 LSQ: 14 IQ: 24, IPC: 0.5278
EPOCH ENDS
EPOCH STARTS
TH0 ROB: 22 LSQ: 8 IQ: 2 IPC: 0.4614
TH1 ROB: 35 LSQ: 11 IQ: 32, IPC: 1.2129
TH2 ROB: 20 LSQ: 6 IQ: 16, IPC: 0.4237
TH3 ROB: 30 LSQ: 14 IQ: 25, IPC: 0.5287
EPOCH ENDS
EPOCH STARTS
TH0 ROB: 103 LSQ: 37 IQ: 33 IPC: 0.4622
TH1 ROB: 17 LSQ: 5 IQ: 12, IPC: 1.2114
TH2 ROB: 20 LSQ: 7 IQ: 19, IPC: 0.4245
TH3 ROB: 16 LSQ: 11 IQ: 11, IPC: 0.5295
EPOCH ENDS
EPOCH STARTS
TH0 ROB: 38 LSQ: 15 IQ: 35 IPC: 0.4629
TH1 ROB: 24 LSQ: 7 IQ: 20, IPC: 1.2098
TH2 ROB: 23 LSQ: 6 IQ: 19, IPC: 0.4252
TH3 ROB: 32 LSQ: 15 IQ: 22, IPC: 0.5304
EPOCH ENDS
EPOCH STARTS
TH0 ROB: 12 LSQ: 3 IQ: 6 IPC: 0.4636
TH1 ROB: 31 LSQ: 10 IQ: 26, IPC: 1.2082
TH2 ROB: 19 LSQ: 6 IQ: 15, IPC: 0.4260
TH3 ROB: 58 LSQ: 28 IQ: 49, IPC: 0.5313
EPOCH ENDS
EPOCH STARTS
TH0 ROB: 37 LSQ: 12 IQ: 31 IPC: 0.4644
TH1 ROB: 22 LSQ: 6 IQ: 12, IPC: 1.2065
TH2 ROB: 29 LSQ: 12 IQ: 25, IPC: 0.4268
TH3 ROB: 32 LSQ: 20 IQ: 28, IPC: 0.5321
EPOCH ENDS
EPOCH STARTS
TH0 ROB: 45 LSQ: 15 IQ: 42 IPC: 0.4650
TH1 ROB: 24 LSQ: 7 IQ: 20, IPC: 1.2050
TH2 ROB: 25 LSQ: 6 IQ: 21, IPC: 0.4275
TH3 ROB: 22 LSQ: 9 IQ: 13, IPC: 0.5330
EPOCH ENDS
EPOCH STARTS
TH0 ROB: 17 LSQ: 6 IQ: 9 IPC: 0.4656
TH1 ROB: 29 LSQ: 10 IQ: 24, IPC: 1.2034
TH2 ROB: 53 LSQ: 22 IQ: 48, IPC: 0.4283
TH3 ROB: 19 LSQ: 9 IQ: 15, IPC: 0.5339
EPOCH ENDS
EPOCH STARTS
TH0 ROB: 41 LSQ: 14 IQ: 35 IPC: 0.4663
TH1 ROB: 17 LSQ: 7 IQ: 13, IPC: 1.2018
TH2 ROB: 17 LSQ: 8 IQ: 12, IPC: 0.4289
TH3 ROB: 37 LSQ: 19 IQ: 36, IPC: 0.5347
EPOCH ENDS
EPOCH STARTS
TH0 ROB: 22 LSQ: 7 IQ: 18 IPC: 0.4671
TH1 ROB: 27 LSQ: 9 IQ: 23, IPC: 1.2003
TH2 ROB: 42 LSQ: 17 IQ: 29, IPC: 0.4296
TH3 ROB: 28 LSQ: 17 IQ: 26, IPC: 0.5356
EPOCH ENDS
EPOCH STARTS
TH0 ROB: 17 LSQ: 7 IQ: 4 IPC: 0.4678
TH1 ROB: 33 LSQ: 10 IQ: 24, IPC: 1.1987
TH2 ROB: 41 LSQ: 13 IQ: 37, IPC: 0.4302
TH3 ROB: 35 LSQ: 18 IQ: 31, IPC: 0.5364
EPOCH ENDS
EPOCH STARTS
TH0 ROB: 21 LSQ: 8 IQ: 14 IPC: 0.4685
TH1 ROB: 39 LSQ: 13 IQ: 36, IPC: 1.1973
TH2 ROB: 23 LSQ: 4 IQ: 17, IPC: 0.4309
TH3 ROB: 36 LSQ: 18 IQ: 29, IPC: 0.5373
EPOCH ENDS
EPOCH STARTS
TH0 ROB: 72 LSQ: 26 IQ: 28 IPC: 0.4691
TH1 ROB: 35 LSQ: 11 IQ: 29, IPC: 1.1957
TH2 ROB: 0 LSQ: 0 IQ: 0, IPC: 0.4316
TH3 ROB: 28 LSQ: 17 IQ: 24, IPC: 0.5381
EPOCH ENDS
EPOCH STARTS
TH0 ROB: 23 LSQ: 7 IQ: 19 IPC: 0.4697
TH1 ROB: 58 LSQ: 19 IQ: 45, IPC: 1.1943
TH2 ROB: 22 LSQ: 10 IQ: 17, IPC: 0.4323
TH3 ROB: 19 LSQ: 13 IQ: 15, IPC: 0.5390
EPOCH ENDS
EPOCH STARTS
TH0 ROB: 18 LSQ: 7 IQ: 11 IPC: 0.4704
TH1 ROB: 35 LSQ: 10 IQ: 29, IPC: 1.1928
TH2 ROB: 35 LSQ: 15 IQ: 32, IPC: 0.4330
TH3 ROB: 29 LSQ: 15 IQ: 24, IPC: 0.5398
EPOCH ENDS
EPOCH STARTS
TH0 ROB: 36 LSQ: 11 IQ: 34 IPC: 0.4709
TH1 ROB: 19 LSQ: 6 IQ: 15, IPC: 1.1914
TH2 ROB: 34 LSQ: 14 IQ: 28, IPC: 0.4337
TH3 ROB: 25 LSQ: 10 IQ: 19, IPC: 0.5406
EPOCH ENDS
EPOCH STARTS
TH0 ROB: 27 LSQ: 10 IQ: 21 IPC: 0.4715
TH1 ROB: 29 LSQ: 10 IQ: 29, IPC: 1.1899
TH2 ROB: 30 LSQ: 9 IQ: 30, IPC: 0.4344
TH3 ROB: 23 LSQ: 2 IQ: 16, IPC: 0.5415
EPOCH ENDS
EPOCH STARTS
TH0 ROB: 40 LSQ: 15 IQ: 31 IPC: 0.4720
TH1 ROB: 29 LSQ: 10 IQ: 25, IPC: 1.1885
TH2 ROB: 34 LSQ: 10 IQ: 30, IPC: 0.4351
TH3 ROB: 19 LSQ: 13 IQ: 10, IPC: 0.5423
EPOCH ENDS
EPOCH STARTS
TH0 ROB: 35 LSQ: 11 IQ: 29 IPC: 0.4725
TH1 ROB: 38 LSQ: 12 IQ: 34, IPC: 1.1871
TH2 ROB: 21 LSQ: 6 IQ: 17, IPC: 0.4358
TH3 ROB: 23 LSQ: 16 IQ: 16, IPC: 0.5432
EPOCH ENDS
EPOCH STARTS
TH0 ROB: 39 LSQ: 14 IQ: 32 IPC: 0.4730
TH1 ROB: 22 LSQ: 7 IQ: 11, IPC: 1.1856
TH2 ROB: 35 LSQ: 24 IQ: 31, IPC: 0.4366
TH3 ROB: 26 LSQ: 11 IQ: 22, IPC: 0.5439
EPOCH ENDS
EPOCH STARTS
TH0 ROB: 36 LSQ: 13 IQ: 32 IPC: 0.4734
TH1 ROB: 40 LSQ: 13 IQ: 36, IPC: 1.1842
TH2 ROB: 23 LSQ: 10 IQ: 16, IPC: 0.4373
TH3 ROB: 20 LSQ: 9 IQ: 12, IPC: 0.5448
EPOCH ENDS
EPOCH STARTS
TH0 ROB: 24 LSQ: 8 IQ: 20 IPC: 0.4740
TH1 ROB: 32 LSQ: 10 IQ: 17, IPC: 1.1828
TH2 ROB: 25 LSQ: 11 IQ: 25, IPC: 0.4380
TH3 ROB: 34 LSQ: 20 IQ: 34, IPC: 0.5456
EPOCH ENDS
EPOCH STARTS
TH0 ROB: 28 LSQ: 9 IQ: 19 IPC: 0.4744
TH1 ROB: 31 LSQ: 9 IQ: 27, IPC: 1.1815
TH2 ROB: 36 LSQ: 16 IQ: 35, IPC: 0.4387
TH3 ROB: 19 LSQ: 13 IQ: 15, IPC: 0.5464
EPOCH ENDS
EPOCH STARTS
TH0 ROB: 39 LSQ: 7 IQ: 36 IPC: 0.4750
TH1 ROB: 31 LSQ: 11 IQ: 22, IPC: 1.1801
TH2 ROB: 23 LSQ: 6 IQ: 17, IPC: 0.4394
TH3 ROB: 26 LSQ: 12 IQ: 21, IPC: 0.5472
EPOCH ENDS
EPOCH STARTS
TH0 ROB: 46 LSQ: 17 IQ: 24 IPC: 0.4754
TH1 ROB: 26 LSQ: 9 IQ: 22, IPC: 1.1788
TH2 ROB: 34 LSQ: 9 IQ: 30, IPC: 0.4400
TH3 ROB: 33 LSQ: 16 IQ: 20, IPC: 0.5480
EPOCH ENDS
EPOCH STARTS
TH0 ROB: 36 LSQ: 6 IQ: 21 IPC: 0.4759
TH1 ROB: 24 LSQ: 7 IQ: 16, IPC: 1.1774
TH2 ROB: 41 LSQ: 19 IQ: 40, IPC: 0.4407
TH3 ROB: 23 LSQ: 9 IQ: 19, IPC: 0.5487
EPOCH ENDS
EPOCH STARTS
TH0 ROB: 23 LSQ: 9 IQ: 19 IPC: 0.4764
TH1 ROB: 39 LSQ: 12 IQ: 32, IPC: 1.1761
TH2 ROB: 29 LSQ: 14 IQ: 23, IPC: 0.4413
TH3 ROB: 33 LSQ: 16 IQ: 22, IPC: 0.5495
EPOCH ENDS
EPOCH STARTS
TH0 ROB: 29 LSQ: 10 IQ: 20 IPC: 0.4769
TH1 ROB: 21 LSQ: 6 IQ: 17, IPC: 1.1749
TH2 ROB: 36 LSQ: 10 IQ: 32, IPC: 0.4419
TH3 ROB: 31 LSQ: 15 IQ: 27, IPC: 0.5502
EPOCH ENDS
EPOCH STARTS
TH0 ROB: 56 LSQ: 20 IQ: 25 IPC: 0.4775
TH1 ROB: 4 LSQ: 2 IQ: 0, IPC: 1.1735
TH2 ROB: 43 LSQ: 16 IQ: 37, IPC: 0.4426
TH3 ROB: 38 LSQ: 20 IQ: 34, IPC: 0.5510
EPOCH ENDS
EPOCH STARTS
TH0 ROB: 36 LSQ: 12 IQ: 32 IPC: 0.4780
TH1 ROB: 14 LSQ: 5 IQ: 9, IPC: 1.1723
TH2 ROB: 27 LSQ: 7 IQ: 20, IPC: 0.4431
TH3 ROB: 40 LSQ: 21 IQ: 35, IPC: 0.5518
EPOCH ENDS
EPOCH STARTS
TH0 ROB: 40 LSQ: 15 IQ: 32 IPC: 0.4784
TH1 ROB: 40 LSQ: 13 IQ: 36, IPC: 1.1710
TH2 ROB: 26 LSQ: 11 IQ: 22, IPC: 0.4437
TH3 ROB: 11 LSQ: 6 IQ: 6, IPC: 0.5526
EPOCH ENDS
EPOCH STARTS
TH0 ROB: 28 LSQ: 10 IQ: 24 IPC: 0.4790
TH1 ROB: 4 LSQ: 2 IQ: 0, IPC: 1.1697
TH2 ROB: 50 LSQ: 25 IQ: 40, IPC: 0.4443
TH3 ROB: 37 LSQ: 19 IQ: 32, IPC: 0.5533
EPOCH ENDS
EPOCH STARTS
TH0 ROB: 78 LSQ: 28 IQ: 16 IPC: 0.4794
TH1 ROB: 37 LSQ: 13 IQ: 35, IPC: 1.1685
TH2 ROB: 27 LSQ: 7 IQ: 20, IPC: 0.4449
TH3 ROB: 29 LSQ: 13 IQ: 25, IPC: 0.5541
EPOCH ENDS
EPOCH STARTS
TH0 ROB: 24 LSQ: 8 IQ: 19 IPC: 0.4799
TH1 ROB: 12 LSQ: 3 IQ: 8, IPC: 1.1673
TH2 ROB: 17 LSQ: 3 IQ: 13, IPC: 0.4455
TH3 ROB: 68 LSQ: 36 IQ: 56, IPC: 0.5548
EPOCH ENDS
EPOCH STARTS
TH0 ROB: 18 LSQ: 5 IQ: 13 IPC: 0.4804
TH1 ROB: 48 LSQ: 15 IQ: 44, IPC: 1.1660
TH2 ROB: 32 LSQ: 12 IQ: 23, IPC: 0.4460
TH3 ROB: 20 LSQ: 10 IQ: 16, IPC: 0.5555
EPOCH ENDS
EPOCH STARTS
TH0 ROB: 29 LSQ: 10 IQ: 25 IPC: 0.4809
TH1 ROB: 22 LSQ: 7 IQ: 18, IPC: 1.1647
TH2 ROB: 2 LSQ: 1 IQ: 0, IPC: 0.4466
TH3 ROB: 21 LSQ: 15 IQ: 14, IPC: 0.5562
EPOCH ENDS
EPOCH STARTS
TH0 ROB: 9 LSQ: 2 IQ: 5 IPC: 0.4814
TH1 ROB: 43 LSQ: 14 IQ: 39, IPC: 1.1634
TH2 ROB: 30 LSQ: 9 IQ: 26, IPC: 0.4471
TH3 ROB: 32 LSQ: 20 IQ: 26, IPC: 0.5570
EPOCH ENDS
EPOCH STARTS
TH0 ROB: 29 LSQ: 10 IQ: 22 IPC: 0.4817
TH1 ROB: 38 LSQ: 12 IQ: 34, IPC: 1.1621
TH2 ROB: 32 LSQ: 11 IQ: 22, IPC: 0.4476
TH3 ROB: 22 LSQ: 10 IQ: 18, IPC: 0.5577
EPOCH ENDS
EPOCH STARTS
TH0 ROB: 36 LSQ: 14 IQ: 31 IPC: 0.4821
TH1 ROB: 33 LSQ: 11 IQ: 28, IPC: 1.1609
TH2 ROB: 32 LSQ: 11 IQ: 25, IPC: 0.4482
TH3 ROB: 16 LSQ: 11 IQ: 12, IPC: 0.5585
EPOCH ENDS
EPOCH STARTS
TH0 ROB: 47 LSQ: 16 IQ: 25 IPC: 0.4825
TH1 ROB: 13 LSQ: 3 IQ: 8, IPC: 1.1597
TH2 ROB: 19 LSQ: 6 IQ: 15, IPC: 0.4487
TH3 ROB: 60 LSQ: 33 IQ: 48, IPC: 0.5592
EPOCH ENDS
EPOCH STARTS
TH0 ROB: 23 LSQ: 9 IQ: 19 IPC: 0.4830
TH1 ROB: 23 LSQ: 7 IQ: 19, IPC: 1.1585
TH2 ROB: 21 LSQ: 6 IQ: 20, IPC: 0.4491
TH3 ROB: 24 LSQ: 9 IQ: 19, IPC: 0.5599
EPOCH ENDS
EPOCH STARTS
TH0 ROB: 75 LSQ: 28 IQ: 12 IPC: 0.4833
TH1 ROB: 41 LSQ: 13 IQ: 41, IPC: 1.1573
TH2 ROB: 23 LSQ: 3 IQ: 18, IPC: 0.4497
TH3 ROB: 31 LSQ: 16 IQ: 25, IPC: 0.5606
EPOCH ENDS
EPOCH STARTS
TH0 ROB: 16 LSQ: 6 IQ: 12 IPC: 0.4839
TH1 ROB: 61 LSQ: 20 IQ: 54, IPC: 1.1561
TH2 ROB: 30 LSQ: 3 IQ: 23, IPC: 0.4502
TH3 ROB: 12 LSQ: 2 IQ: 7, IPC: 0.5613
EPOCH ENDS
EPOCH STARTS
TH0 ROB: 29 LSQ: 10 IQ: 20 IPC: 0.4844
TH1 ROB: 26 LSQ: 7 IQ: 18, IPC: 1.1549
TH2 ROB: 40 LSQ: 9 IQ: 37, IPC: 0.4508
TH3 ROB: 25 LSQ: 15 IQ: 21, IPC: 0.5620
EPOCH ENDS
EPOCH STARTS
TH0 ROB: 29 LSQ: 10 IQ: 22 IPC: 0.4850
TH1 ROB: 35 LSQ: 10 IQ: 29, IPC: 1.1537
TH2 ROB: 37 LSQ: 11 IQ: 32, IPC: 0.4513
TH3 ROB: 19 LSQ: 13 IQ: 13, IPC: 0.5626
EPOCH ENDS
EPOCH STARTS
TH0 ROB: 40 LSQ: 14 IQ: 38 IPC: 0.4854
TH1 ROB: 14 LSQ: 5 IQ: 10, IPC: 1.1525
TH2 ROB: 39 LSQ: 12 IQ: 35, IPC: 0.4518
TH3 ROB: 19 LSQ: 11 IQ: 13, IPC: 0.5634
EPOCH ENDS
EPOCH STARTS
TH0 ROB: 29 LSQ: 12 IQ: 23 IPC: 0.4859
TH1 ROB: 36 LSQ: 10 IQ: 33, IPC: 1.1514
TH2 ROB: 31 LSQ: 12 IQ: 24, IPC: 0.4524
TH3 ROB: 21 LSQ: 14 IQ: 16, IPC: 0.5640
EPOCH ENDS
EPOCH STARTS
TH0 ROB: 37 LSQ: 13 IQ: 34 IPC: 0.4863
TH1 ROB: 15 LSQ: 4 IQ: 11, IPC: 1.1503
TH2 ROB: 34 LSQ: 14 IQ: 29, IPC: 0.4529
TH3 ROB: 30 LSQ: 14 IQ: 22, IPC: 0.5647
EPOCH ENDS
EPOCH STARTS
TH0 ROB: 18 LSQ: 6 IQ: 14 IPC: 0.4868
TH1 ROB: 13 LSQ: 3 IQ: 9, IPC: 1.1491
TH2 ROB: 63 LSQ: 19 IQ: 48, IPC: 0.4534
TH3 ROB: 29 LSQ: 13 IQ: 25, IPC: 0.5654
EPOCH ENDS
EPOCH STARTS
TH0 ROB: 15 LSQ: 6 IQ: 11 IPC: 0.4872
TH1 ROB: 35 LSQ: 10 IQ: 34, IPC: 1.1480
TH2 ROB: 47 LSQ: 13 IQ: 39, IPC: 0.4540
TH3 ROB: 18 LSQ: 12 IQ: 12, IPC: 0.5660
EPOCH ENDS
EPOCH STARTS
TH0 ROB: 75 LSQ: 26 IQ: 39 IPC: 0.4877
TH1 ROB: 15 LSQ: 5 IQ: 11, IPC: 1.1468
TH2 ROB: 29 LSQ: 10 IQ: 24, IPC: 0.4546
TH3 ROB: 30 LSQ: 14 IQ: 22, IPC: 0.5668
EPOCH ENDS
EPOCH STARTS
TH0 ROB: 34 LSQ: 11 IQ: 27 IPC: 0.4882
TH1 ROB: 30 LSQ: 10 IQ: 26, IPC: 1.1457
TH2 ROB: 22 LSQ: 6 IQ: 15, IPC: 0.4551
TH3 ROB: 32 LSQ: 20 IQ: 28, IPC: 0.5674
EPOCH ENDS
EPOCH STARTS
TH0 ROB: 34 LSQ: 13 IQ: 30 IPC: 0.4887
TH1 ROB: 38 LSQ: 11 IQ: 31, IPC: 1.1445
TH2 ROB: 33 LSQ: 11 IQ: 27, IPC: 0.4556
TH3 ROB: 13 LSQ: 8 IQ: 8, IPC: 0.5681
EPOCH ENDS
EPOCH STARTS
TH0 ROB: 30 LSQ: 11 IQ: 20 IPC: 0.4890
TH1 ROB: 24 LSQ: 9 IQ: 20, IPC: 1.1434
TH2 ROB: 29 LSQ: 10 IQ: 25, IPC: 0.4562
TH3 ROB: 35 LSQ: 18 IQ: 31, IPC: 0.5687
EPOCH ENDS
EPOCH STARTS
TH0 ROB: 35 LSQ: 6 IQ: 19 IPC: 0.4894
TH1 ROB: 34 LSQ: 10 IQ: 28, IPC: 1.1423
TH2 ROB: 26 LSQ: 13 IQ: 21, IPC: 0.4567
TH3 ROB: 33 LSQ: 18 IQ: 28, IPC: 0.5694
EPOCH ENDS
EPOCH STARTS
TH0 ROB: 26 LSQ: 10 IQ: 19 IPC: 0.4897
TH1 ROB: 28 LSQ: 9 IQ: 22, IPC: 1.1413
TH2 ROB: 34 LSQ: 13 IQ: 33, IPC: 0.4572
TH3 ROB: 26 LSQ: 13 IQ: 22, IPC: 0.5700
EPOCH ENDS
EPOCH STARTS
TH0 ROB: 28 LSQ: 4 IQ: 22 IPC: 0.4901
TH1 ROB: 31 LSQ: 11 IQ: 26, IPC: 1.1402
TH2 ROB: 32 LSQ: 8 IQ: 25, IPC: 0.4577
TH3 ROB: 23 LSQ: 11 IQ: 23, IPC: 0.5706
EPOCH ENDS
EPOCH STARTS
TH0 ROB: 12 LSQ: 3 IQ: 8 IPC: 0.4905
TH1 ROB: 25 LSQ: 9 IQ: 17, IPC: 1.1391
TH2 ROB: 30 LSQ: 12 IQ: 30, IPC: 0.4583
TH3 ROB: 45 LSQ: 25 IQ: 41, IPC: 0.5713
EPOCH ENDS
EPOCH STARTS
TH0 ROB: 27 LSQ: 11 IQ: 17 IPC: 0.4909
TH1 ROB: 34 LSQ: 11 IQ: 30, IPC: 1.1381
TH2 ROB: 43 LSQ: 8 IQ: 39, IPC: 0.4589
TH3 ROB: 21 LSQ: 12 IQ: 10, IPC: 0.5718
EPOCH ENDS
EPOCH STARTS
TH0 ROB: 78 LSQ: 28 IQ: 29 IPC: 0.4913
TH1 ROB: 24 LSQ: 7 IQ: 10, IPC: 1.1370
TH2 ROB: 25 LSQ: 9 IQ: 20, IPC: 0.4594
TH3 ROB: 40 LSQ: 20 IQ: 37, IPC: 0.5724
EPOCH ENDS
EPOCH STARTS
TH0 ROB: 11 LSQ: 5 IQ: 7 IPC: 0.4917
TH1 ROB: 31 LSQ: 10 IQ: 29, IPC: 1.1359
TH2 ROB: 47 LSQ: 10 IQ: 37, IPC: 0.4599
TH3 ROB: 27 LSQ: 15 IQ: 23, IPC: 0.5731
EPOCH ENDS
EPOCH STARTS
TH0 ROB: 36 LSQ: 13 IQ: 32 IPC: 0.4922
TH1 ROB: 17 LSQ: 7 IQ: 12, IPC: 1.1349
TH2 ROB: 15 LSQ: 5 IQ: 7, IPC: 0.4604
TH3 ROB: 55 LSQ: 27 IQ: 45, IPC: 0.5737
EPOCH ENDS
EPOCH STARTS
TH0 ROB: 35 LSQ: 12 IQ: 30 IPC: 0.4925
TH1 ROB: 27 LSQ: 9 IQ: 23, IPC: 1.1338
TH2 ROB: 32 LSQ: 2 IQ: 27, IPC: 0.4610
TH3 ROB: 24 LSQ: 10 IQ: 16, IPC: 0.5743
EPOCH ENDS
EPOCH STARTS
TH0 ROB: 23 LSQ: 7 IQ: 20 IPC: 0.4929
TH1 ROB: 31 LSQ: 11 IQ: 26, IPC: 1.1328
TH2 ROB: 28 LSQ: 13 IQ: 24, IPC: 0.4615
TH3 ROB: 28 LSQ: 13 IQ: 26, IPC: 0.5750
EPOCH ENDS
EPOCH STARTS
TH0 ROB: 27 LSQ: 10 IQ: 15 IPC: 0.4934
TH1 ROB: 29 LSQ: 10 IQ: 24, IPC: 1.1317
TH2 ROB: 24 LSQ: 9 IQ: 20, IPC: 0.4620
TH3 ROB: 38 LSQ: 20 IQ: 37, IPC: 0.5756
EPOCH ENDS
EPOCH STARTS
TH0 ROB: 21 LSQ: 6 IQ: 17 IPC: 0.4937
TH1 ROB: 43 LSQ: 13 IQ: 38, IPC: 1.1307
TH2 ROB: 32 LSQ: 10 IQ: 26, IPC: 0.4625
TH3 ROB: 22 LSQ: 14 IQ: 15, IPC: 0.5762
EPOCH ENDS
EPOCH STARTS
TH0 ROB: 37 LSQ: 12 IQ: 33 IPC: 0.4941
TH1 ROB: 36 LSQ: 12 IQ: 31, IPC: 1.1297
TH2 ROB: 8 LSQ: 1 IQ: 4, IPC: 0.4631
TH3 ROB: 32 LSQ: 16 IQ: 28, IPC: 0.5767
EPOCH ENDS
EPOCH STARTS
TH0 ROB: 18 LSQ: 5 IQ: 14 IPC: 0.4944
TH1 ROB: 30 LSQ: 8 IQ: 27, IPC: 1.1287
TH2 ROB: 37 LSQ: 4 IQ: 33, IPC: 0.4636
TH3 ROB: 29 LSQ: 18 IQ: 22, IPC: 0.5774
EPOCH ENDS
EPOCH STARTS
TH0 ROB: 35 LSQ: 12 IQ: 22 IPC: 0.4948
TH1 ROB: 32 LSQ: 10 IQ: 28, IPC: 1.1276
TH2 ROB: 9 LSQ: 5 IQ: 4, IPC: 0.4641
TH3 ROB: 42 LSQ: 23 IQ: 42, IPC: 0.5780
EPOCH ENDS
EPOCH STARTS
TH0 ROB: 57 LSQ: 20 IQ: 15 IPC: 0.4952
TH1 ROB: 31 LSQ: 9 IQ: 23, IPC: 1.1266
TH2 ROB: 47 LSQ: 20 IQ: 43, IPC: 0.4646
TH3 ROB: 22 LSQ: 8 IQ: 15, IPC: 0.5785
EPOCH ENDS
EPOCH STARTS
TH0 ROB: 17 LSQ: 6 IQ: 10 IPC: 0.4956
TH1 ROB: 40 LSQ: 13 IQ: 34, IPC: 1.1256
TH2 ROB: 25 LSQ: 6 IQ: 20, IPC: 0.4652
TH3 ROB: 33 LSQ: 17 IQ: 32, IPC: 0.5791
EPOCH ENDS
EPOCH STARTS
TH0 ROB: 14 LSQ: 6 IQ: 11 IPC: 0.4960
TH1 ROB: 28 LSQ: 9 IQ: 26, IPC: 1.1245
TH2 ROB: 27 LSQ: 12 IQ: 23, IPC: 0.4657
TH3 ROB: 31 LSQ: 19 IQ: 25, IPC: 0.5797
EPOCH ENDS
EPOCH STARTS
TH0 ROB: 28 LSQ: 10 IQ: 22 IPC: 0.4963
TH1 ROB: 32 LSQ: 10 IQ: 29, IPC: 1.1235
TH2 ROB: 19 LSQ: 8 IQ: 15, IPC: 0.4662
TH3 ROB: 23 LSQ: 13 IQ: 17, IPC: 0.5803
EPOCH ENDS
EPOCH STARTS
TH0 ROB: 37 LSQ: 14 IQ: 35 IPC: 0.4967
TH1 ROB: 28 LSQ: 8 IQ: 21, IPC: 1.1226
TH2 ROB: 23 LSQ: 11 IQ: 18, IPC: 0.4666
TH3 ROB: 29 LSQ: 13 IQ: 22, IPC: 0.5809
EPOCH ENDS
EPOCH STARTS
TH0 ROB: 30 LSQ: 10 IQ: 26 IPC: 0.4970
TH1 ROB: 33 LSQ: 11 IQ: 27, IPC: 1.1216
TH2 ROB: 32 LSQ: 7 IQ: 24, IPC: 0.4671
TH3 ROB: 24 LSQ: 15 IQ: 19, IPC: 0.5815
EPOCH ENDS
EPOCH STARTS
TH0 ROB: 25 LSQ: 15 IQ: 16 IPC: 0.4974
TH1 ROB: 32 LSQ: 10 IQ: 27, IPC: 1.1207
TH2 ROB: 45 LSQ: 20 IQ: 40, IPC: 0.4675
TH3 ROB: 90 LSQ: 48 IQ: 13, IPC: 0.5820
EPOCH ENDS
EPOCH STARTS
TH0 ROB: 41 LSQ: 14 IQ: 28 IPC: 0.4976
TH1 ROB: 26 LSQ: 8 IQ: 14, IPC: 1.1198
TH2 ROB: 32 LSQ: 4 IQ: 26, IPC: 0.4680
TH3 ROB: 32 LSQ: 20 IQ: 28, IPC: 0.5826
EPOCH ENDS
EPOCH STARTS
TH0 ROB: 28 LSQ: 4 IQ: 15 IPC: 0.4980
TH1 ROB: 26 LSQ: 8 IQ: 19, IPC: 1.1188
TH2 ROB: 31 LSQ: 15 IQ: 31, IPC: 0.4685
TH3 ROB: 28 LSQ: 14 IQ: 28, IPC: 0.5832
EPOCH ENDS
EPOCH STARTS
TH0 ROB: 31 LSQ: 12 IQ: 6 IPC: 0.4984
TH1 ROB: 32 LSQ: 10 IQ: 25, IPC: 1.1179
TH2 ROB: 44 LSQ: 13 IQ: 37, IPC: 0.4689
TH3 ROB: 29 LSQ: 15 IQ: 28, IPC: 0.5837
EPOCH ENDS
EPOCH STARTS
TH0 ROB: 34 LSQ: 5 IQ: 27 IPC: 0.4987
TH1 ROB: 40 LSQ: 12 IQ: 39, IPC: 1.1169
TH2 ROB: 20 LSQ: 6 IQ: 14, IPC: 0.4694
TH3 ROB: 23 LSQ: 9 IQ: 16, IPC: 0.5844
EPOCH ENDS
EPOCH STARTS
TH0 ROB: 36 LSQ: 13 IQ: 32 IPC: 0.4990
TH1 ROB: 32 LSQ: 11 IQ: 28, IPC: 1.1160
TH2 ROB: 15 LSQ: 5 IQ: 11, IPC: 0.4698
TH3 ROB: 35 LSQ: 19 IQ: 25, IPC: 0.5850
EPOCH ENDS
EPOCH STARTS
TH0 ROB: 36 LSQ: 13 IQ: 31 IPC: 0.4993
TH1 ROB: 16 LSQ: 4 IQ: 8, IPC: 1.1150
TH2 ROB: 32 LSQ: 9 IQ: 28, IPC: 0.4703
TH3 ROB: 33 LSQ: 15 IQ: 29, IPC: 0.5855
EPOCH ENDS
EPOCH STARTS
TH0 ROB: 3 LSQ: 2 IQ: 0 IPC: 0.4997
TH1 ROB: 39 LSQ: 12 IQ: 29, IPC: 1.1141
TH2 ROB: 38 LSQ: 16 IQ: 31, IPC: 0.4707
TH3 ROB: 31 LSQ: 15 IQ: 30, IPC: 0.5861
EPOCH ENDS
EPOCH STARTS
TH0 ROB: 22 LSQ: 7 IQ: 18 IPC: 0.5000
TH1 ROB: 29 LSQ: 9 IQ: 14, IPC: 1.1132
TH2 ROB: 20 LSQ: 9 IQ: 15, IPC: 0.4712
TH3 ROB: 53 LSQ: 29 IQ: 49, IPC: 0.5866
EPOCH ENDS
EPOCH STARTS
TH0 ROB: 30 LSQ: 10 IQ: 26 IPC: 0.5004
TH1 ROB: 18 LSQ: 4 IQ: 13, IPC: 1.1123
TH2 ROB: 40 LSQ: 14 IQ: 37, IPC: 0.4717
TH3 ROB: 26 LSQ: 11 IQ: 20, IPC: 0.5872
EPOCH ENDS
EPOCH STARTS
TH0 ROB: 11 LSQ: 4 IQ: 7 IPC: 0.5006
TH1 ROB: 32 LSQ: 10 IQ: 23, IPC: 1.1113
TH2 ROB: 33 LSQ: 10 IQ: 28, IPC: 0.4722
TH3 ROB: 28 LSQ: 12 IQ: 27, IPC: 0.5877
EPOCH ENDS
EPOCH STARTS
TH0 ROB: 36 LSQ: 12 IQ: 33 IPC: 0.5010
TH1 ROB: 25 LSQ: 8 IQ: 21, IPC: 1.1104
TH2 ROB: 28 LSQ: 8 IQ: 21, IPC: 0.4726
TH3 ROB: 26 LSQ: 10 IQ: 21, IPC: 0.5883
EPOCH ENDS
EPOCH STARTS
TH0 ROB: 76 LSQ: 27 IQ: 27 IPC: 0.5013
TH1 ROB: 39 LSQ: 12 IQ: 39, IPC: 1.1095
TH2 ROB: 29 LSQ: 10 IQ: 22, IPC: 0.4730
TH3 ROB: 15 LSQ: 4 IQ: 8, IPC: 0.5889
EPOCH ENDS
EPOCH STARTS
TH0 ROB: 67 LSQ: 24 IQ: 20 IPC: 0.5017
TH1 ROB: 33 LSQ: 10 IQ: 25, IPC: 1.1085
TH2 ROB: 28 LSQ: 7 IQ: 24, IPC: 0.4735
TH3 ROB: 32 LSQ: 16 IQ: 27, IPC: 0.5894
EPOCH ENDS
EPOCH STARTS
TH0 ROB: 66 LSQ: 24 IQ: 22 IPC: 0.5020
TH1 ROB: 21 LSQ: 7 IQ: 16, IPC: 1.1076
TH2 ROB: 37 LSQ: 12 IQ: 37, IPC: 0.4739
TH3 ROB: 37 LSQ: 19 IQ: 21, IPC: 0.5900
EPOCH ENDS
EPOCH STARTS
TH0 ROB: 35 LSQ: 11 IQ: 26 IPC: 0.5024
TH1 ROB: 33 LSQ: 10 IQ: 32, IPC: 1.1067
TH2 ROB: 23 LSQ: 10 IQ: 19, IPC: 0.4744
TH3 ROB: 23 LSQ: 9 IQ: 19, IPC: 0.5905
EPOCH ENDS
EPOCH STARTS
TH0 ROB: 40 LSQ: 14 IQ: 38 IPC: 0.5026
TH1 ROB: 32 LSQ: 10 IQ: 24, IPC: 1.1058
TH2 ROB: 4 LSQ: 3 IQ: 0, IPC: 0.4748
TH3 ROB: 35 LSQ: 20 IQ: 34, IPC: 0.5910
EPOCH ENDS
EPOCH STARTS
TH0 ROB: 59 LSQ: 19 IQ: 19 IPC: 0.5030
TH1 ROB: 33 LSQ: 11 IQ: 28, IPC: 1.1050
TH2 ROB: 24 LSQ: 12 IQ: 17, IPC: 0.4750
TH3 ROB: 35 LSQ: 18 IQ: 32, IPC: 0.5916
EPOCH ENDS
EPOCH STARTS
TH0 ROB: 30 LSQ: 11 IQ: 14 IPC: 0.5033
TH1 ROB: 53 LSQ: 16 IQ: 42, IPC: 1.1041
TH2 ROB: 40 LSQ: 17 IQ: 36, IPC: 0.4754
TH3 ROB: 10 LSQ: 7 IQ: 4, IPC: 0.5921
EPOCH ENDS
EPOCH STARTS
TH0 ROB: 40 LSQ: 14 IQ: 37 IPC: 0.5035
TH1 ROB: 34 LSQ: 10 IQ: 24, IPC: 1.1032
TH2 ROB: 9 LSQ: 1 IQ: 7, IPC: 0.4758
TH3 ROB: 26 LSQ: 14 IQ: 20, IPC: 0.5926
EPOCH ENDS
EPOCH STARTS
TH0 ROB: 26 LSQ: 8 IQ: 23 IPC: 0.5038
TH1 ROB: 24 LSQ: 7 IQ: 24, IPC: 1.1023
TH2 ROB: 27 LSQ: 7 IQ: 23, IPC: 0.4763
TH3 ROB: 25 LSQ: 10 IQ: 17, IPC: 0.5931
EPOCH ENDS
EPOCH STARTS
TH0 ROB: 27 LSQ: 4 IQ: 16 IPC: 0.5042
TH1 ROB: 31 LSQ: 9 IQ: 23, IPC: 1.1014
TH2 ROB: 37 LSQ: 11 IQ: 33, IPC: 0.4767
TH3 ROB: 28 LSQ: 19 IQ: 24, IPC: 0.5936
EPOCH ENDS
EPOCH STARTS
TH0 ROB: 18 LSQ: 6 IQ: 12 IPC: 0.5044
TH1 ROB: 35 LSQ: 10 IQ: 33, IPC: 1.1005
TH2 ROB: 20 LSQ: 10 IQ: 16, IPC: 0.4771
TH3 ROB: 47 LSQ: 27 IQ: 35, IPC: 0.5942
EPOCH ENDS
EPOCH STARTS
TH0 ROB: 39 LSQ: 6 IQ: 37 IPC: 0.5048
TH1 ROB: 32 LSQ: 10 IQ: 24, IPC: 1.0997
TH2 ROB: 32 LSQ: 14 IQ: 26, IPC: 0.4775
TH3 ROB: 15 LSQ: 11 IQ: 9, IPC: 0.5947
EPOCH ENDS
EPOCH STARTS
TH0 ROB: 32 LSQ: 10 IQ: 28 IPC: 0.5051
TH1 ROB: 31 LSQ: 10 IQ: 24, IPC: 1.0989
TH2 ROB: 5 LSQ: 1 IQ: 1, IPC: 0.4779
TH3 ROB: 36 LSQ: 18 IQ: 36, IPC: 0.5952
EPOCH ENDS
EPOCH STARTS
TH0 ROB: 12 LSQ: 4 IQ: 8 IPC: 0.5053
TH1 ROB: 35 LSQ: 10 IQ: 24, IPC: 1.0980
TH2 ROB: 30 LSQ: 6 IQ: 30, IPC: 0.4783
TH3 ROB: 28 LSQ: 13 IQ: 23, IPC: 0.5957
EPOCH ENDS
EPOCH STARTS
TH0 ROB: 41 LSQ: 15 IQ: 39 IPC: 0.5057
TH1 ROB: 39 LSQ: 12 IQ: 32, IPC: 1.0971
TH2 ROB: 25 LSQ: 11 IQ: 19, IPC: 0.4788
TH3 ROB: 12 LSQ: 9 IQ: 6, IPC: 0.5962
EPOCH ENDS
EPOCH STARTS
TH0 ROB: 43 LSQ: 15 IQ: 31 IPC: 0.5060
TH1 ROB: 34 LSQ: 11 IQ: 30, IPC: 1.0963
TH2 ROB: 9 LSQ: 0 IQ: 5, IPC: 0.4792
TH3 ROB: 32 LSQ: 16 IQ: 30, IPC: 0.5967
EPOCH ENDS
EPOCH STARTS
TH0 ROB: 56 LSQ: 19 IQ: 25 IPC: 0.5064
TH1 ROB: 30 LSQ: 10 IQ: 24, IPC: 1.0954
TH2 ROB: 31 LSQ: 11 IQ: 27, IPC: 0.4796
TH3 ROB: 27 LSQ: 13 IQ: 20, IPC: 0.5972
EPOCH ENDS
EPOCH STARTS
TH0 ROB: 41 LSQ: 14 IQ: 40 IPC: 0.5067
TH1 ROB: 33 LSQ: 11 IQ: 28, IPC: 1.0945
TH2 ROB: 104 LSQ: 53 IQ: 28, IPC: 0.4801
TH3 ROB: 10 LSQ: 6 IQ: 0, IPC: 0.5976
EPOCH ENDS
EPOCH STARTS
TH0 ROB: 20 LSQ: 7 IQ: 17 IPC: 0.5071
TH1 ROB: 28 LSQ: 8 IQ: 21, IPC: 1.0937
TH2 ROB: 19 LSQ: 7 IQ: 17, IPC: 0.4804
TH3 ROB: 25 LSQ: 11 IQ: 23, IPC: 0.5981
EPOCH ENDS
EPOCH STARTS
TH0 ROB: 27 LSQ: 9 IQ: 22 IPC: 0.5075
TH1 ROB: 39 LSQ: 13 IQ: 35, IPC: 1.0929
TH2 ROB: 42 LSQ: 19 IQ: 33, IPC: 0.4808
TH3 ROB: 11 LSQ: 6 IQ: 6, IPC: 0.5985
EPOCH ENDS
EPOCH STARTS
TH0 ROB: 62 LSQ: 21 IQ: 36 IPC: 0.5077
TH1 ROB: 24 LSQ: 8 IQ: 17, IPC: 1.0921
TH2 ROB: 22 LSQ: 8 IQ: 18, IPC: 0.4812
TH3 ROB: 31 LSQ: 20 IQ: 25, IPC: 0.5990
EPOCH ENDS
EPOCH STARTS
TH0 ROB: 38 LSQ: 14 IQ: 34 IPC: 0.5080
TH1 ROB: 26 LSQ: 8 IQ: 22, IPC: 1.0913
TH2 ROB: 29 LSQ: 6 IQ: 20, IPC: 0.4816
TH3 ROB: 35 LSQ: 17 IQ: 20, IPC: 0.5995
EPOCH ENDS
EPOCH STARTS
TH0 ROB: 29 LSQ: 11 IQ: 28 IPC: 0.5083
TH1 ROB: 29 LSQ: 8 IQ: 26, IPC: 1.0906
TH2 ROB: 28 LSQ: 6 IQ: 23, IPC: 0.4820
TH3 ROB: 21 LSQ: 9 IQ: 18, IPC: 0.6000
EPOCH ENDS
EPOCH STARTS
TH0 ROB: 32 LSQ: 11 IQ: 28 IPC: 0.5085
TH1 ROB: 34 LSQ: 10 IQ: 28, IPC: 1.0897
TH2 ROB: 27 LSQ: 10 IQ: 21, IPC: 0.4823
TH3 ROB: 25 LSQ: 11 IQ: 19, IPC: 0.6005
EPOCH ENDS
EPOCH STARTS
TH0 ROB: 32 LSQ: 10 IQ: 22 IPC: 0.5089
TH1 ROB: 26 LSQ: 9 IQ: 22, IPC: 1.0890
TH2 ROB: 19 LSQ: 6 IQ: 13, IPC: 0.4827
TH3 ROB: 40 LSQ: 20 IQ: 39, IPC: 0.6009
EPOCH ENDS
EPOCH STARTS
TH0 ROB: 23 LSQ: 9 IQ: 19 IPC: 0.5092
TH1 ROB: 33 LSQ: 10 IQ: 28, IPC: 1.0882
TH2 ROB: 42 LSQ: 19 IQ: 33, IPC: 0.4831
TH3 ROB: 20 LSQ: 8 IQ: 16, IPC: 0.6014
EPOCH ENDS
EPOCH STARTS
TH0 ROB: 18 LSQ: 7 IQ: 12 IPC: 0.5095
TH1 ROB: 21 LSQ: 7 IQ: 17, IPC: 1.0874
TH2 ROB: 19 LSQ: 6 IQ: 15, IPC: 0.4834
TH3 ROB: 56 LSQ: 32 IQ: 52, IPC: 0.6019
EPOCH ENDS
EPOCH STARTS
TH0 ROB: 27 LSQ: 11 IQ: 18 IPC: 0.5098
TH1 ROB: 28 LSQ: 8 IQ: 22, IPC: 1.0866
[...]
Thread_3_cpred_bimod.retstack_pops            0 # total number of address popped off of ret-addr stack
Thread_3_cpred_bimod.used_ras.PP            0 # total number of RAS predictions used
Thread_3_cpred_bimod.ras_hits.PP            0 # total number of RAS hits
Thread_3_cpred_bimod.ras_rate.PP <error: divide by zero> # RAS prediction rate (i.e., RAS hits/used RAS)
il1.accesses              799021844 # total number of accesses
il1.hits                  798379405 # total number of hits
il1.misses                   642439 # total number of misses
il1.replacements             642439 # total number of replacements
il1.writebacks                    0 # total number of writebacks
il1.invalidations                 0 # total number of invalidations
il1.miss_rate                0.0008 # miss rate (i.e., misses/ref)
il1.repl_rate                0.0008 # replacement rate (i.e., repls/ref)
il1.wb_rate                  0.0000 # writeback rate (i.e., wrbks/ref)
il1.inv_rate                 0.0000 # invalidation rate (i.e., invs/ref)
dl1.accesses              265120341 # total number of accesses
dl1.hits                  249284095 # total number of hits
dl1.misses                 15836246 # total number of misses
dl1.replacements           15836246 # total number of replacements
dl1.writebacks             12735399 # total number of writebacks
dl1.invalidations                 0 # total number of invalidations
dl1.miss_rate                0.0597 # miss rate (i.e., misses/ref)
dl1.repl_rate                0.0597 # replacement rate (i.e., repls/ref)
dl1.wb_rate                  0.0480 # writeback rate (i.e., wrbks/ref)
dl1.inv_rate                 0.0000 # invalidation rate (i.e., invs/ref)
ul2.accesses               29214084 # total number of accesses
ul2.hits                   18491147 # total number of hits
ul2.misses                 10722937 # total number of misses
ul2.replacements           10722937 # total number of replacements
ul2.writebacks              7734388 # total number of writebacks
ul2.invalidations                 0 # total number of invalidations
ul2.miss_rate                0.3670 # miss rate (i.e., misses/ref)
ul2.repl_rate                0.3670 # replacement rate (i.e., repls/ref)
ul2.wb_rate                  0.2647 # writeback rate (i.e., wrbks/ref)
ul2.inv_rate                 0.0000 # invalidation rate (i.e., invs/ref)
itlb.accesses             799021844 # total number of accesses
itlb.hits                 799021440 # total number of hits
itlb.misses                     404 # total number of misses
itlb.replacements               404 # total number of replacements
itlb.writebacks                   0 # total number of writebacks
itlb.invalidations                0 # total number of invalidations
itlb.miss_rate               0.0000 # miss rate (i.e., misses/ref)
itlb.repl_rate               0.0000 # replacement rate (i.e., repls/ref)
itlb.wb_rate                 0.0000 # writeback rate (i.e., wrbks/ref)
itlb.inv_rate                0.0000 # invalidation rate (i.e., invs/ref)
dtlb.accesses             267882143 # total number of accesses
dtlb.hits                 266251145 # total number of hits
dtlb.misses                 1630998 # total number of misses
dtlb.replacements           1630998 # total number of replacements
dtlb.writebacks                   0 # total number of writebacks
dtlb.invalidations                0 # total number of invalidations
dtlb.miss_rate               0.0061 # miss rate (i.e., misses/ref)
dtlb.repl_rate               0.0061 # replacement rate (i.e., repls/ref)
dtlb.wb_rate                 0.0000 # writeback rate (i.e., wrbks/ref)
dtlb.inv_rate                0.0000 # invalidation rate (i.e., invs/ref)
sim_invalid_addrs                 0 # total non-speculative bogus addresses seen (debug var)
ld_text_base           0x0120000000 # program text (code) segment base
mem->ld_text_size            589824 # program text (code) size in bytes
mem->ld_data_base      0x0140000000 # program initialized data segment base
mem->ld_data_size            179872 # program init'ed `.data' and uninit'ed `.bss' size in bytes
mem->ld_stack_base     0x011ff9b000 # program stack segment base (highest address in stack)
mem->ld_stack_size            16384 # program initial stack size
mem->ld_prog_entry     0x0120000300 # program entry point (initial PC)
mem->ld_environ_base   0x011ff97000 # program environment base address address
mem->ld_target_big_endian            0 # target executable endian-ness, non-zero if big endian
mem_0.page_count                937 # total number of pages allocated
mem_0.page_mem                7496k # total size of memory pages allocated
mem_0.ptab_misses            133159 # total first level page table misses
mem_0.ptab_accesses      1042854061 # total page table accesses
mem_0.ptab_miss_rate         0.0001 # first level page table miss rate
ld_text_base           0x0120000000 # program text (code) segment base
mem->ld_text_size            401408 # program text (code) size in bytes
mem->ld_data_base      0x0140000000 # program initialized data segment base
mem->ld_data_size             70816 # program init'ed `.data' and uninit'ed `.bss' size in bytes
mem->ld_stack_base     0x011ff9b000 # program stack segment base (highest address in stack)
mem->ld_stack_size            16384 # program initial stack size
mem->ld_prog_entry     0x012000ff40 # program entry point (initial PC)
mem->ld_environ_base   0x011ff97000 # program environment base address address
mem->ld_target_big_endian            0 # target executable endian-ness, non-zero if big endian
mem_0.page_count               4158 # total number of pages allocated
mem_0.page_mem                7496k # total size of memory pages allocated
mem_0.ptab_misses              6418 # total first level page table misses
mem_0.ptab_accesses      1296803706 # total page table accesses
mem_0.ptab_miss_rate         0.0001 # first level page table miss rate
ld_text_base           0x0120000000 # program text (code) segment base
mem->ld_text_size            974848 # program text (code) size in bytes
mem->ld_data_base      0x0140000000 # program initialized data segment base
mem->ld_data_size             79184 # program init'ed `.data' and uninit'ed `.bss' size in bytes
mem->ld_stack_base     0x011ff9b000 # program stack segment base (highest address in stack)
mem->ld_stack_size            16384 # program initial stack size
mem->ld_prog_entry     0x0120015580 # program entry point (initial PC)
mem->ld_environ_base   0x011ff97000 # program environment base address address
mem->ld_target_big_endian            0 # target executable endian-ness, non-zero if big endian
mem_0.page_count                189 # total number of pages allocated
mem_0.page_mem                7496k # total size of memory pages allocated
mem_0.ptab_misses            852984 # total first level page table misses
mem_0.ptab_accesses      1341199134 # total page table accesses
mem_0.ptab_miss_rate         0.0001 # first level page table miss rate
ld_text_base           0x0120000000 # program text (code) segment base
mem->ld_text_size            507904 # program text (code) size in bytes
mem->ld_data_base      0x0140000000 # program initialized data segment base
mem->ld_data_size        1172354816 # program init'ed `.data' and uninit'ed `.bss' size in bytes
mem->ld_stack_base     0x011ff9b000 # program stack segment base (highest address in stack)
mem->ld_stack_size            16384 # program initial stack size
mem->ld_prog_entry     0x0120000300 # program entry point (initial PC)
mem->ld_environ_base   0x011ff97000 # program environment base address address
mem->ld_target_big_endian            0 # target executable endian-ness, non-zero if big endian
mem_0.page_count              21375 # total number of pages allocated
mem_0.page_mem                7496k # total size of memory pages allocated
mem_0.ptab_misses             27601 # total first level page table misses
mem_0.ptab_accesses      1795575910 # total page table accesses
mem_0.ptab_miss_rate         0.0001 # first level page table miss rate
rename_power           170831330.8521 # total power usage of rename unit
bpred_power            1130781596.2667 # total power usage of bpred unit
window_power           3569047442.0555 # total power usage of instruction window
lsq_power              1992927240.4008 # total power usage of load/store queue
regfile_power          893118024.3201 # total power usage of arch. regfile
icache_power           1058450497.7872 # total power usage of icache
dcache_power           2311943843.8834 # total power usage of dcache
dcache2_power          1300033981.9295 # total power usage of dcache2
alu_power              4735293863.5147 # total power usage of alu
falu_power             3570261239.8660 # total power usage of falu
resultbus_power        2253231538.7770 # total power usage of resultbus
clock_power            7621587330.2502 # total power usage of clock
avg_rename_power             0.6833 # avg power usage of rename unit
avg_bpred_power              4.5231 # avg power usage of bpred unit
avg_window_power            14.2762 # avg power usage of instruction window
avg_lsq_power                7.9717 # avg power usage of lsq
avg_regfile_power            3.5725 # avg power usage of arch. regfile
avg_icache_power             4.2338 # avg power usage of icache
avg_dcache_power             9.2478 # avg power usage of dcache
avg_dcache2_power            5.2001 # avg power usage of dcache2
avg_alu_power               18.9412 # avg power usage of alu
avg_falu_power              14.2810 # avg power usage of falu
avg_resultbus_power          9.0129 # avg power usage of resultbus
avg_clock_power             30.4863 # avg power usage of clock
fetch_stage_power      2189232094.0540 # total power usage of fetch stage
dispatch_stage_power   170831330.8521 # total power usage of dispatch stage
issue_stage_power      16162477910.5610 # total power usage of issue stage
avg_fetch_power              8.7569 # average power of fetch unit per cycle
avg_dispatch_power           0.6833 # average power of dispatch unit per cycle
avg_issue_power             64.6499 # average power of issue unit per cycle
total_power            27037246690.0374 # total power per cycle
avg_total_power_cycle      108.1490 # average total power per cycle
avg_total_power_cycle_nofp_nod2      88.6678 # average total power per cycle
avg_total_power_insn        34.7140 # average total power per insn
avg_total_power_insn_nofp_nod2      28.4609 # average total power per insn
rename_power_cc1       164200294.7927 # total power usage of rename unit_cc1
bpred_power_cc1        270968104.3905 # total power usage of bpred unit_cc1
window_power_cc1       3510134220.2442 # total power usage of instruction window_cc1
lsq_power_cc1          958336926.3012 # total power usage of lsq_cc1
regfile_power_cc1      681807170.3546 # total power usage of arch. regfile_cc1
icache_power_cc1       957900279.6002 # total power usage of icache_cc1
dcache_power_cc1       1755035971.6196 # total power usage of dcache_cc1
dcache2_power_cc1      85348483.9372 # total power usage of dcache2_cc1
alu_power_cc1          1654030281.6506 # total power usage of alu_cc1
resultbus_power_cc1    1857731417.8678 # total power usage of resultbus_cc1
clock_power_cc1        4980100834.6595 # total power usage of clock_cc1
avg_rename_power_cc1         0.6568 # avg power usage of rename unit_cc1
avg_bpred_power_cc1          1.0839 # avg power usage of bpred unit_cc1
avg_window_power_cc1        14.0405 # avg power usage of instruction window_cc1
avg_lsq_power_cc1            3.8333 # avg power usage of lsq_cc1
avg_regfile_power_cc1        2.7272 # avg power usage of arch. regfile_cc1
avg_icache_power_cc1         3.8316 # avg power usage of icache_cc1
avg_dcache_power_cc1         7.0201 # avg power usage of dcache_cc1
avg_dcache2_power_cc1        0.3414 # avg power usage of dcache2_cc1
avg_alu_power_cc1            6.6161 # avg power usage of alu_cc1
avg_resultbus_power_cc1       7.4309 # avg power usage of resultbus_cc1
avg_clock_power_cc1         19.9204 # avg power usage of clock_cc1
fetch_stage_power_cc1  1228868383.9906 # total power usage of fetch stage_cc1
dispatch_stage_power_cc1 164200294.7927 # total power usage of dispatch stage_cc1
issue_stage_power_cc1  9820617301.6207 # total power usage of issue stage_cc1
avg_fetch_power_cc1          4.9155 # average power of fetch unit per cycle_cc1
avg_dispatch_power_cc1       0.6568 # average power of dispatch unit per cycle_cc1
avg_issue_power_cc1         39.2825 # average power of issue unit per cycle_cc1
total_power_cycle_cc1  16875593985.4181 # total power per cycle_cc1
avg_total_power_cycle_cc1      67.5024 # average total power per cycle_cc1
avg_total_power_insn_cc1      21.6671 # average total power per insn_cc1
rename_power_cc2       133053179.6214 # total power usage of rename unit_cc2
bpred_power_cc2        150522040.8405 # total power usage of bpred unit_cc2
window_power_cc2       3415190704.3952 # total power usage of instruction window_cc2
lsq_power_cc2          573885864.6987 # total power usage of lsq_cc2
regfile_power_cc2      158783075.9290 # total power usage of arch. regfile_cc2
icache_power_cc2       957900279.6002 # total power usage of icache_cc2
dcache_power_cc2       1225886682.7058 # total power usage of dcache_cc2
dcache2_power_cc2      75958603.7145 # total power usage of dcache2_cc2
alu_power_cc2          940912471.7470 # total power usage of alu_cc2
resultbus_power_cc2    1537260785.2635 # total power usage of resultbus_cc2
clock_power_cc2        3845799912.7524 # total power usage of clock_cc2
avg_rename_power_cc2         0.5322 # avg power usage of rename unit_cc2
avg_bpred_power_cc2          0.6021 # avg power usage of bpred unit_cc2
avg_window_power_cc2        13.6608 # avg power usage of instruction window_cc2
avg_lsq_power_cc2            2.2955 # avg power usage of instruction lsq_cc2
avg_regfile_power_cc2        0.6351 # avg power usage of arch. regfile_cc2
avg_icache_power_cc2         3.8316 # avg power usage of icache_cc2
avg_dcache_power_cc2         4.9035 # avg power usage of dcache_cc2
avg_dcache2_power_cc2        0.3038 # avg power usage of dcache2_cc2
avg_alu_power_cc2            3.7636 # avg power usage of alu_cc2
avg_resultbus_power_cc2       6.1490 # avg power usage of resultbus_cc2
avg_clock_power_cc2         15.3832 # avg power usage of clock_cc2
fetch_stage_power_cc2  1108422320.4406 # total power usage of fetch stage_cc2
dispatch_stage_power_cc2 133053179.6214 # total power usage of dispatch stage_cc2
issue_stage_power_cc2  7769095112.5247 # total power usage of issue stage_cc2
avg_fetch_power_cc2          4.4337 # average power of fetch unit per cycle_cc2
avg_dispatch_power_cc2       0.5322 # average power of dispatch unit per cycle_cc2
avg_issue_power_cc2         31.0764 # average power of issue unit per cycle_cc2
total_power_cycle_cc2  13015153601.2681 # total power per cycle_cc2
avg_total_power_cycle_cc2      52.0606 # average total power per cycle_cc2
avg_total_power_insn_cc2      16.7106 # average total power per insn_cc2
rename_power_cc3       133716283.2526 # total power usage of rename unit_cc3
bpred_power_cc3        236597334.9202 # total power usage of bpred unit_cc3
window_power_cc3       3415660572.0578 # total power usage of instruction window_cc3
lsq_power_cc3          672303873.4267 # total power usage of lsq_cc3
regfile_power_cc3      166035944.0880 # total power usage of arch. regfile_cc3
icache_power_cc3       967955301.9207 # total power usage of icache_cc3
dcache_power_cc3       1287128494.1320 # total power usage of dcache_cc3
dcache2_power_cc3      197548288.2345 # total power usage of dcache2_cc3
alu_power_cc3          1249038831.7797 # total power usage of alu_cc3
resultbus_power_cc3    1539514609.7632 # total power usage of resultbus_cc3
clock_power_cc3        4086277301.1639 # total power usage of clock_cc3
avg_rename_power_cc3         0.5349 # avg power usage of rename unit_cc3
avg_bpred_power_cc3          0.9464 # avg power usage of bpred unit_cc3
avg_window_power_cc3        13.6626 # avg power usage of instruction window_cc3
avg_lsq_power_cc3            2.6892 # avg power usage of instruction lsq_cc3
avg_regfile_power_cc3        0.6641 # avg power usage of arch. regfile_cc3
avg_icache_power_cc3         3.8718 # avg power usage of icache_cc3
avg_dcache_power_cc3         5.1485 # avg power usage of dcache_cc3
avg_dcache2_power_cc3        0.7902 # avg power usage of dcache2_cc3
avg_alu_power_cc3            4.9962 # avg power usage of alu_cc3
avg_resultbus_power_cc3       6.1581 # avg power usage of resultbus_cc3
avg_clock_power_cc3         16.3451 # avg power usage of clock_cc3
fetch_stage_power_cc3  1204552636.8409 # total power usage of fetch stage_cc3
dispatch_stage_power_cc3 133716283.2526 # total power usage of dispatch stage_cc3
issue_stage_power_cc3  8361194669.3939 # total power usage of issue stage_cc3
avg_fetch_power_cc3          4.8182 # average power of fetch unit per cycle_cc3
avg_dispatch_power_cc3       0.5349 # average power of dispatch unit per cycle_cc3
avg_issue_power_cc3         33.4448 # average power of issue unit per cycle_cc3
total_power_cycle_cc3  13951776834.7393 # total power per cycle_cc3
avg_total_power_cycle_cc3      55.8071 # average total power per cycle_cc3
avg_total_power_insn_cc3      17.9131 # average total power per insn_cc3
total_rename_access       778857008 # total number accesses of rename unit
total_bpred_access         66556637 # total number accesses of bpred unit
total_window_access      2635694757 # total number accesses of instruction window
total_lsq_access          268708514 # total number accesses of load/store queue
total_regfile_access      643821076 # total number accesses of arch. regfile
total_icache_access       803792291 # total number accesses of icache
total_dcache_access       265120341 # total number accesses of dcache
total_dcache2_access       29214084 # total number accesses of dcache2
total_alu_access          729765189 # total number accesses of alu
total_resultbus_access    833126306 # total number accesses of resultbus
avg_rename_access            3.1154 # avg number accesses of rename unit
avg_bpred_access             0.2662 # avg number accesses of bpred unit
avg_window_access           10.5428 # avg number accesses of instruction window
avg_lsq_access               1.0748 # avg number accesses of lsq
avg_regfile_access           2.5753 # avg number accesses of arch. regfile
avg_icache_access            3.2152 # avg number accesses of icache
avg_dcache_access            1.0605 # avg number accesses of dcache
avg_dcache2_access           0.1169 # avg number accesses of dcache2
avg_alu_access               2.9191 # avg number accesses of alu
avg_resultbus_access         3.3325 # avg number accesses of resultbus
max_rename_access                 4 # max number accesses of rename unit
max_bpred_access                  6 # max number accesses of bpred unit
max_window_access                43 # max number accesses of instruction window
max_lsq_access                    4 # max number accesses of load/store queue
max_regfile_access               16 # max number accesses of arch. regfile
max_icache_access                 4 # max number accesses of icache
max_dcache_access                 4 # max number accesses of dcache
max_dcache2_access                8 # max number accesses of dcache2
max_alu_access                    4 # max number accesses of alu
max_resultbus_access             35 # max number accesses of resultbus
max_cycle_power_cc1        172.7119 # maximum cycle power usage of cc1
max_cycle_power_cc2        161.3817 # maximum cycle power usage of cc2
max_cycle_power_cc3        164.9776 # maximum cycle power usage of cc3


******* SMT STATS *******
THROUGHPUT IPC: 2.8432

TH0 IPC: 0.6225

TH1 IPC: 0.7978

TH2 IPC: 0.6499

TH3 IPC: 0.7730

