sim-outorder: SimpleScalar/Alpha Tool Set version 3.0 of August, 2003.
Copyright (c) 1994-2003 by Todd M. Austin, Ph.D. and SimpleScalar, LLC.
All Rights Reserved. This version of SimpleScalar is licensed for academic
non-commercial use.  No portion of this work may be used by any commercial
entity, or for any commercial purpose, without the prior written permission
of SimpleScalar, LLC (info@simplescalar.com).


Processor Parameters:
Issue Width: 4
Window Size: 224
Number of Virtual Registers: 32
Number of Physical Registers: 256
Datapath Width: 64
Total Power Consumption: 110.149
Branch Predictor Power Consumption: 4.52313  (4.18%)
 branch target buffer power (W): 4.16837
 local predict power (W): 0.0879711
 global predict power (W): 0.0996078
 chooser power (W): 0.0702439
 RAS power (W): 0.0969383
Rename Logic Power Consumption: 0.683325  (0.632%)
 Instruction Decode Power (W): 0.0159915
 RAT decode_power (W): 0.113514
 RAT wordline_power (W): 0.0493708
 RAT bitline_power (W): 0.493541
 DCL Comparators (W): 0.0109075
Instruction Window Power Consumption: 14.2762  (13.2%)
 tagdrive (W): 0.827064
 tagmatch (W): 0.360565
 Selection Logic (W): 0.0885831
 decode_power (W): 1.16922
 wordline_power (W): 0.0844643
 bitline_power (W): 11.7463
Load/Store Queue Power Consumption: 7.97171  (7.37%)
 tagdrive (W): 3.75392
 tagmatch (W): 1.61238
 decode_power (W): 0.181222
 wordline_power (W): 0.0150119
 bitline_power (W): 2.40917
Arch. Register File Power Consumption: 3.57247  (3.3%)
 decode_power (W): 0.113514
 wordline_power (W): 0.0844643
 bitline_power (W): 3.37449
Result Bus Power Consumption: 9.01293  (8.33%)
Total Clock Power: 30.4863  (28.2%)
Int ALU Power: 4.66013  (4.31%)
FP ALU Power: 14.281  (13.2%)
Instruction Cache Power Consumption: 3.97049  (3.67%)
 decode_power (W): 1.67268
 wordline_power (W): 0.028656
 bitline_power (W): 1.5122
 senseamp_power (W): 0.096
 tagarray_power (W): 0.660946
Itlb_power (W): 0.263317 (0.243%)
Data Cache Power Consumption: 8.34726  (7.72%)
 decode_power (W): 1.44978
 wordline_power (W): 0.196735
 bitline_power (W): 4.58765
 senseamp_power (W): 0.768
 tagarray_power (W): 1.34509
Dtlb_power (W): 0.900515 (0.833%)
Level 2 Cache Power Consumption: 5.20014 (4.81%)
 decode_power (W): 0.41817
 wordline_power (W): 0.0430878
 bitline_power (W): 3.0244
 senseamp_power (W): 0.192
 tagarray_power (W): 1.52247
sim-main: initalizing context 0:bwavesNS.1.arg
args: 0:./bwaves.base.alpha 
sim: loading binary...
sim: loading ./bwaves.base.alpha
sim-main: initalizing context 1:bzip2NS.1.arg
args: 0:./bzip2.base.alpha 1:./input.source 2:280 
sim: loading binary...
sim: loading ./bzip2.base.alpha
sim-main: initalizing context 2:gromacsNS.1.arg
args: 0:./gromacs.base.alpha 1:-silent 2:-deffnm 3:gromacs 4:-nice 5:0 
sim: loading binary...
sim: loading ./gromacs.base.alpha
sim-main: initalizing context 3:hmmerNS.1.arg
args: 0:./hmmer.base.alpha 1:./nph3.hmm 2:./swiss41 
sim: loading binary...
sim: loading ./hmmer.base.alpha
sim: command line: ../m-sim_v2.0/sim-outorder bwavesNS.1.arg bzip2NS.1.arg gromacsNS.1.arg hmmerNS.1.arg 

sim: simulation started @ Mon Aug  8 14:35:27 2022, options follow:

sim-outorder: This simulator implements a very detailed out-of-order issue
superscalar processor with a two-level memory system and speculative
execution support.  This simulator is a performance simulator, tracking the
latency of all pipeline operations.

# -config                     # load configuration from a file
# -dumpconfig                 # dump configuration to a file
# -h                    false # print help message    
# -v                    false # verbose operation     
# -d                    false # enable debug message  
# -i                    false # start in Dlite debugger
-seed                       1 # random number generator seed (0 for timer seed)
# -q                    false # initialize and terminate immediately
# -redir:sim           <null> # redirect simulator output to file (non-interactive only)
# -redir:prog          <null> # redirect simulated program output to file
-nice                       0 # simulator scheduling priority
-max:inst           250000000 # maximum number of inst's to execute
-fastfwd             10000000 # number of insts skipped before timing starts
# -ptrace              <null> # generate pipetrace, i.e., <fname|stdout|stderr> <range>
-fetch:speed                1 # speed of front-end of machine relative to execution core
-bpred                  bimod # branch predictor type {nottaken|taken|perfect|bimod|2lev|comb}
-bpred:bimod     2048 # bimodal predictor config (<table size>)
-bpred:2lev      1 1024 8 0 # 2-level predictor config (<l1size> <l2size> <hist_size> <xor>)
-bpred:comb      1024 # combining predictor config (<meta_table_size>)
-bpred:ras                  8 # return address stack size (0 for no return stack)
-bpred:btb       512 4 # BTB config (<num_sets> <associativity>)
# -bpred:spec_update       <null> # speculative predictors update in {ID|WB} (default non-spec)
-cpred                  bimod # cache load-latency predictor type {nottaken|taken|perfect|bimod|2lev|comb}
-cpred:bimod     2048 # cache load-latency bimodal predictor config (<table size>)
-cpred:2lev      1 1024 8 0 # cache load-latency 2-level predictor config (<l1size> <l2size> <hist_size> <xor>)
-cpred:comb      1024 # cache load-latency combining predictor config (<meta_table_size>)
-cpred:ras                  0 # return address stack size (0 for no return stack)
-cpred:btb       512 4 # cache load-latency BTB config (<num_sets> <associativity>)
-decode:width               4 # instruction decode B/W (insts/cycle)
-issue:width                4 # instruction issue B/W (insts/cycle)
-issue:inorder          false # run pipeline with in-order issue
-issue:wrongpath         true # issue instructions down wrong execution paths
-commit:width               4 # instruction commit B/W (insts/cycle)
-rob:size                 224 # reorder buffer (ROB) size
-fetch:policy |icount|round_robin|       icount # fetch policy          
-recovery:model        squash # Alpha squash recovery or perfect predition: |squash|perfect|
-iq:size                   96 # issue queue (IQ) size 
-iq:issue_exec_delay            1 # minimum cycles between issue and execution
-fetch_rename_delay            4 # number of cycles between fetch and rename stages
-rename_dispatch_delay            1 # number cycles between rename and dispatch stages
-rf:size                  256 # register file (RF) size for each the INT and FP physical register file)
-lsq:size                 128 # load/store queue (LSQ) size
-cache:dl1       dl1:256:32:4:l # l1 data cache config, i.e., {<config>|none}
-cache:dl1lat               1 # l1 data cache hit latency (in cycles)
-cache:dl2       ul2:1024:64:8:l # l2 data cache config, i.e., {<config>|none}
-cache:dl2lat               6 # l2 data cache hit latency (in cycles)
-cache:il1       il1:512:32:2:l # l1 inst cache config, i.e., {<config>|dl1|dl2|none}
-cache:il1lat               1 # l1 instruction cache hit latency (in cycles)
-cache:il2                dl2 # l2 instruction cache config, i.e., {<config>|dl2|none}
-cache:il2lat               6 # l2 instruction cache hit latency (in cycles)
-cache:flush            false # flush caches on system calls
-cache:icompress        false # convert 64-bit inst addresses to 32-bit inst equivalents
-mem:lat         100 2 # memory access latency (<first_chunk> <inter_chunk>)
-mem:width                  8 # memory access bus width (in bytes)
-tlb:itlb        itlb:16:4096:4:l # instruction TLB config, i.e., {<config>|none}
-tlb:dtlb        dtlb:32:4096:4:l # data TLB config, i.e., {<config>|none}
-tlb:lat                   30 # inst/data TLB miss latency (in cycles)
-res:ialu                   4 # total number of integer ALU's available
-res:imult                  1 # total number of integer multiplier/dividers available
-res:memport                2 # total number of memory system ports available (to CPU)
-res:fpalu                  4 # total number of floating point ALU's available
-res:fpmult                 1 # total number of floating point multiplier/dividers available
# -pcstat              <null> # profile stat(s) against text addr's (mult uses ok)
-power:print_stats         true # print power statistics collected by wattch?

  Pipetrace range arguments are formatted as follows:

    {{@|#}<start>}:{{@|#|+}<end>}

  Both ends of the range are optional, if neither are specified, the entire
  execution is traced.  Ranges that start with a `@' designate an address
  range to be traced, those that start with an `#' designate a cycle count
  range.  All other range values represent an instruction count range.  The
  second argument, if specified with a `+', indicates a value relative
  to the first argument, e.g., 1000:+100 == 1000:1100.  Program symbols may
  be used in all contexts.

    Examples:   -ptrace FOO.trc #0:#1000
                -ptrace BAR.trc @2000:
                -ptrace BLAH.trc :1500
                -ptrace UXXE.trc :
                -ptrace FOOBAR.trc @main:+278

  Branch predictor configuration examples for 2-level predictor:
    Configurations:   N, M, W, X
      N   # entries in first level (# of shift register(s))
      W   width of shift register(s)
      M   # entries in 2nd level (# of counters, or other FSM)
      X   (yes-1/no-0) xor history and address for 2nd level index
    Sample predictors:
      GAg     : 1, W, 2^W, 0
      GAp     : 1, W, M (M > 2^W), 0
      PAg     : N, W, 2^W, 0
      PAp     : N, W, M (M == 2^(N+W)), 0
      gshare  : 1, W, 2^W, 1
  Predictor `comb' combines a bimodal and a 2-level predictor.

  The cache config parameter <config> has the following format:

    <name>:<nsets>:<bsize>:<assoc>:<repl>

    <name>   - name of the cache being defined
    <nsets>  - number of sets in the cache
    <bsize>  - block size of the cache
    <assoc>  - associativity of the cache
    <repl>   - block replacement strategy, 'l'-LRU, 'f'-FIFO, 'r'-random

    Examples:   -cache:dl1 dl1:4096:32:1:l
                -dtlb dtlb:128:4096:32:r

  Cache levels can be unified by pointing a level of the instruction cache
  hierarchy at the data cache hiearchy using the "dl1" and "dl2" cache
  configuration arguments.  Most sensible combinations are supported, e.g.,

    A unified l2 cache (il2 is pointed at dl2):
      -cache:il1 il1:128:64:1:l -cache:il2 dl2
      -cache:dl1 dl1:256:32:1:l -cache:dl2 ul2:1024:64:2:l

    Or, a fully unified cache hierarchy (il1 pointed at dl1):
      -cache:il1 dl1
      -cache:dl1 ul1:256:32:1:l -cache:dl2 ul2:1024:64:2:l



sim: ** fast forwarding insts **
warning: partially supported sigaction() call...
sim: ** starting performance simulation **
EPOCH STARTS
TH0 ROB: 38 LSQ: 9 IQ: 34 IPC: 0.6353
TH1 ROB: 112 LSQ: 81 IQ: 27, IPC: 0.7788
TH2 ROB: 29 LSQ: 6 IQ: 25, IPC: 0.6174
TH3 ROB: 17 LSQ: 10 IQ: 10, IPC: 0.7019
EPOCH ENDS
EPOCH STARTS
TH0 ROB: 39 LSQ: 15 IQ: 33 IPC: 0.6361
TH1 ROB: 98 LSQ: 71 IQ: 19, IPC: 0.7795
TH2 ROB: 36 LSQ: 16 IQ: 32, IPC: 0.6215
TH3 ROB: 27 LSQ: 5 IQ: 12, IPC: 0.6974
EPOCH ENDS
EPOCH STARTS
TH0 ROB: 22 LSQ: 4 IQ: 17 IPC: 0.6384
TH1 ROB: 123 LSQ: 89 IQ: 26, IPC: 0.7773
TH2 ROB: 26 LSQ: 8 IQ: 22, IPC: 0.6275
TH3 ROB: 32 LSQ: 11 IQ: 31, IPC: 0.6926
EPOCH ENDS
EPOCH STARTS
TH0 ROB: 16 LSQ: 4 IQ: 12 IPC: 0.6374
TH1 ROB: 118 LSQ: 84 IQ: 28, IPC: 0.7759
TH2 ROB: 18 LSQ: 4 IQ: 14, IPC: 0.6278
TH3 ROB: 57 LSQ: 24 IQ: 42, IPC: 0.6945
EPOCH ENDS
EPOCH STARTS
TH0 ROB: 20 LSQ: 8 IQ: 16 IPC: 0.6356
TH1 ROB: 106 LSQ: 76 IQ: 16, IPC: 0.7769
TH2 ROB: 41 LSQ: 14 IQ: 33, IPC: 0.6273
TH3 ROB: 119 LSQ: 41 IQ: 31, IPC: 0.6945
EPOCH ENDS
EPOCH STARTS
TH0 ROB: 30 LSQ: 8 IQ: 26 IPC: 0.6369
TH1 ROB: 118 LSQ: 85 IQ: 23, IPC: 0.7747
TH2 ROB: 38 LSQ: 14 IQ: 33, IPC: 0.6288
TH3 ROB: 32 LSQ: 8 IQ: 14, IPC: 0.6958
EPOCH ENDS
EPOCH STARTS
TH0 ROB: 41 LSQ: 17 IQ: 37 IPC: 0.6368
TH1 ROB: 75 LSQ: 55 IQ: 16, IPC: 0.7768
TH2 ROB: 17 LSQ: 3 IQ: 13, IPC: 0.6291
TH3 ROB: 43 LSQ: 8 IQ: 30, IPC: 0.6933
EPOCH ENDS
EPOCH STARTS
TH0 ROB: 15 LSQ: 5 IQ: 11 IPC: 0.6367
TH1 ROB: 96 LSQ: 70 IQ: 34, IPC: 0.7745
TH2 ROB: 23 LSQ: 12 IQ: 19, IPC: 0.6296
TH3 ROB: 41 LSQ: 17 IQ: 32, IPC: 0.6941
EPOCH ENDS
EPOCH STARTS
TH0 ROB: 19 LSQ: 4 IQ: 15 IPC: 0.6360
TH1 ROB: 99 LSQ: 72 IQ: 31, IPC: 0.7747
TH2 ROB: 31 LSQ: 14 IQ: 26, IPC: 0.6302
TH3 ROB: 29 LSQ: 15 IQ: 24, IPC: 0.6945
EPOCH ENDS
EPOCH STARTS
TH0 ROB: 34 LSQ: 10 IQ: 28 IPC: 0.6368
TH1 ROB: 108 LSQ: 77 IQ: 35, IPC: 0.7749
TH2 ROB: 28 LSQ: 11 IQ: 24, IPC: 0.6293
TH3 ROB: 13 LSQ: 8 IQ: 9, IPC: 0.6943
EPOCH ENDS
EPOCH STARTS
TH0 ROB: 28 LSQ: 10 IQ: 16 IPC: 0.6365
TH1 ROB: 129 LSQ: 92 IQ: 24, IPC: 0.7759
TH2 ROB: 46 LSQ: 15 IQ: 46, IPC: 0.6299
TH3 ROB: 16 LSQ: 6 IQ: 10, IPC: 0.6929
EPOCH ENDS
EPOCH STARTS
TH0 ROB: 37 LSQ: 16 IQ: 37 IPC: 0.6370
TH1 ROB: 105 LSQ: 74 IQ: 15, IPC: 0.7757
TH2 ROB: 21 LSQ: 7 IQ: 17, IPC: 0.6307
TH3 ROB: 31 LSQ: 4 IQ: 27, IPC: 0.6923
EPOCH ENDS
EPOCH STARTS
TH0 ROB: 35 LSQ: 13 IQ: 24 IPC: 0.6369
TH1 ROB: 84 LSQ: 60 IQ: 37, IPC: 0.7750
TH2 ROB: 26 LSQ: 6 IQ: 22, IPC: 0.6312
TH3 ROB: 27 LSQ: 5 IQ: 13, IPC: 0.6931
EPOCH ENDS
EPOCH STARTS
TH0 ROB: 36 LSQ: 21 IQ: 33 IPC: 0.6370
TH1 ROB: 130 LSQ: 93 IQ: 34, IPC: 0.7745
TH2 ROB: 3 LSQ: 1 IQ: 0, IPC: 0.6314
TH3 ROB: 42 LSQ: 14 IQ: 22, IPC: 0.6933
EPOCH ENDS
EPOCH STARTS
TH0 ROB: 11 LSQ: 6 IQ: 7 IPC: 0.6369
TH1 ROB: 80 LSQ: 57 IQ: 22, IPC: 0.7754
TH2 ROB: 56 LSQ: 18 IQ: 46, IPC: 0.6311
TH3 ROB: 25 LSQ: 8 IQ: 21, IPC: 0.6928
EPOCH ENDS
EPOCH STARTS
TH0 ROB: 44 LSQ: 19 IQ: 42 IPC: 0.6371
TH1 ROB: 80 LSQ: 56 IQ: 16, IPC: 0.7752
TH2 ROB: 3 LSQ: 1 IQ: 0, IPC: 0.6308
TH3 ROB: 29 LSQ: 11 IQ: 24, IPC: 0.6930
EPOCH ENDS
EPOCH STARTS
TH0 ROB: 21 LSQ: 9 IQ: 17 IPC: 0.6372
TH1 ROB: 131 LSQ: 92 IQ: 48, IPC: 0.7748
TH2 ROB: 11 LSQ: 3 IQ: 4, IPC: 0.6312
TH3 ROB: 64 LSQ: 29 IQ: 27, IPC: 0.6931
EPOCH ENDS
EPOCH STARTS
TH0 ROB: 32 LSQ: 16 IQ: 28 IPC: 0.6374
TH1 ROB: 57 LSQ: 42 IQ: 21, IPC: 0.7745
TH2 ROB: 42 LSQ: 9 IQ: 32, IPC: 0.6312
TH3 ROB: 4 LSQ: 2 IQ: 0, IPC: 0.6937
EPOCH ENDS
EPOCH STARTS
TH0 ROB: 16 LSQ: 8 IQ: 11 IPC: 0.6377
TH1 ROB: 178 LSQ: 128 IQ: 52, IPC: 0.7746
TH2 ROB: 19 LSQ: 10 IQ: 16, IPC: 0.6305
TH3 ROB: 20 LSQ: 4 IQ: 17, IPC: 0.6939
EPOCH ENDS
EPOCH STARTS
TH0 ROB: 27 LSQ: 4 IQ: 23 IPC: 0.6375
TH1 ROB: 130 LSQ: 93 IQ: 32, IPC: 0.7741
TH2 ROB: 24 LSQ: 4 IQ: 20, IPC: 0.6309
TH3 ROB: 31 LSQ: 6 IQ: 21, IPC: 0.6945
EPOCH ENDS
EPOCH STARTS
TH0 ROB: 21 LSQ: 9 IQ: 17 IPC: 0.6375
TH1 ROB: 78 LSQ: 56 IQ: 13, IPC: 0.7733
TH2 ROB: 38 LSQ: 8 IQ: 31, IPC: 0.6304
TH3 ROB: 39 LSQ: 20 IQ: 35, IPC: 0.6958
EPOCH ENDS
EPOCH STARTS
TH0 ROB: 0 LSQ: 0 IQ: 0 IPC: 0.6377
TH1 ROB: 95 LSQ: 69 IQ: 30, IPC: 0.7728
TH2 ROB: 32 LSQ: 8 IQ: 28, IPC: 0.6306
TH3 ROB: 32 LSQ: 14 IQ: 28, IPC: 0.6960
EPOCH ENDS
EPOCH STARTS
TH0 ROB: 23 LSQ: 8 IQ: 18 IPC: 0.6376
TH1 ROB: 112 LSQ: 81 IQ: 35, IPC: 0.7739
TH2 ROB: 23 LSQ: 8 IQ: 19, IPC: 0.6305
TH3 ROB: 40 LSQ: 22 IQ: 24, IPC: 0.6949
EPOCH ENDS
EPOCH STARTS
TH0 ROB: 42 LSQ: 17 IQ: 38 IPC: 0.6382
TH1 ROB: 105 LSQ: 76 IQ: 25, IPC: 0.7734
TH2 ROB: 3 LSQ: 1 IQ: 0, IPC: 0.6304
TH3 ROB: 27 LSQ: 17 IQ: 25, IPC: 0.6954
EPOCH ENDS
EPOCH STARTS
TH0 ROB: 16 LSQ: 4 IQ: 12 IPC: 0.6384
TH1 ROB: 93 LSQ: 67 IQ: 32, IPC: 0.7730
TH2 ROB: 0 LSQ: 0 IQ: 0, IPC: 0.6298
TH3 ROB: 55 LSQ: 13 IQ: 44, IPC: 0.6965
EPOCH ENDS
EPOCH STARTS
TH0 ROB: 28 LSQ: 12 IQ: 20 IPC: 0.6382
TH1 ROB: 130 LSQ: 91 IQ: 45, IPC: 0.7730
TH2 ROB: 31 LSQ: 14 IQ: 27, IPC: 0.6295
TH3 ROB: 11 LSQ: 4 IQ: 4, IPC: 0.6970
EPOCH ENDS
EPOCH STARTS
TH0 ROB: 24 LSQ: 8 IQ: 20 IPC: 0.6377
TH1 ROB: 76 LSQ: 54 IQ: 20, IPC: 0.7733
TH2 ROB: 15 LSQ: 6 IQ: 10, IPC: 0.6289
TH3 ROB: 59 LSQ: 24 IQ: 46, IPC: 0.6977
EPOCH ENDS
EPOCH STARTS
TH0 ROB: 34 LSQ: 17 IQ: 29 IPC: 0.6379
TH1 ROB: 97 LSQ: 70 IQ: 16, IPC: 0.7733
TH2 ROB: 23 LSQ: 8 IQ: 17, IPC: 0.6288
TH3 ROB: 34 LSQ: 9 IQ: 34, IPC: 0.6977
EPOCH ENDS
EPOCH STARTS
TH0 ROB: 30 LSQ: 16 IQ: 29 IPC: 0.6379
TH1 ROB: 102 LSQ: 72 IQ: 23, IPC: 0.7739
TH2 ROB: 24 LSQ: 7 IQ: 21, IPC: 0.6288
TH3 ROB: 17 LSQ: 6 IQ: 13, IPC: 0.6969
EPOCH ENDS
EPOCH STARTS
TH0 ROB: 31 LSQ: 4 IQ: 25 IPC: 0.6381
TH1 ROB: 107 LSQ: 77 IQ: 27, IPC: 0.7734
TH2 ROB: 42 LSQ: 18 IQ: 37, IPC: 0.6295
TH3 ROB: 11 LSQ: 3 IQ: 7, IPC: 0.6967
EPOCH ENDS
EPOCH STARTS
TH0 ROB: 30 LSQ: 15 IQ: 26 IPC: 0.6379
TH1 ROB: 103 LSQ: 75 IQ: 15, IPC: 0.7739
TH2 ROB: 3 LSQ: 1 IQ: 0, IPC: 0.6297
TH3 ROB: 32 LSQ: 10 IQ: 17, IPC: 0.6962
EPOCH ENDS
EPOCH STARTS
TH0 ROB: 8 LSQ: 3 IQ: 4 IPC: 0.6378
TH1 ROB: 82 LSQ: 58 IQ: 21, IPC: 0.7739
TH2 ROB: 19 LSQ: 9 IQ: 15, IPC: 0.6299
TH3 ROB: 21 LSQ: 11 IQ: 18, IPC: 0.6963
EPOCH ENDS
EPOCH STARTS
TH0 ROB: 38 LSQ: 14 IQ: 34 IPC: 0.6376
TH1 ROB: 75 LSQ: 55 IQ: 32, IPC: 0.7739
TH2 ROB: 4 LSQ: 2 IQ: 0, IPC: 0.6301
TH3 ROB: 16 LSQ: 7 IQ: 16, IPC: 0.6962
EPOCH ENDS
EPOCH STARTS
TH0 ROB: 23 LSQ: 5 IQ: 19 IPC: 0.6374
TH1 ROB: 112 LSQ: 80 IQ: 16, IPC: 0.7740
TH2 ROB: 45 LSQ: 19 IQ: 41, IPC: 0.6303
TH3 ROB: 30 LSQ: 5 IQ: 20, IPC: 0.6959
EPOCH ENDS
EPOCH STARTS
TH0 ROB: 20 LSQ: 4 IQ: 16 IPC: 0.6374
TH1 ROB: 102 LSQ: 74 IQ: 24, IPC: 0.7742
TH2 ROB: 31 LSQ: 12 IQ: 27, IPC: 0.6302
TH3 ROB: 26 LSQ: 12 IQ: 24, IPC: 0.6959
EPOCH ENDS
EPOCH STARTS
TH0 ROB: 18 LSQ: 8 IQ: 14 IPC: 0.6372
TH1 ROB: 168 LSQ: 120 IQ: 47, IPC: 0.7740
TH2 ROB: 21 LSQ: 4 IQ: 17, IPC: 0.6307
TH3 ROB: 29 LSQ: 9 IQ: 18, IPC: 0.6956
EPOCH ENDS
EPOCH STARTS
TH0 ROB: 15 LSQ: 6 IQ: 11 IPC: 0.6369
TH1 ROB: 117 LSQ: 84 IQ: 33, IPC: 0.7743
TH2 ROB: 49 LSQ: 17 IQ: 42, IPC: 0.6308
TH3 ROB: 18 LSQ: 9 IQ: 10, IPC: 0.6955
EPOCH ENDS
EPOCH STARTS
TH0 ROB: 28 LSQ: 9 IQ: 22 IPC: 0.6368
TH1 ROB: 86 LSQ: 62 IQ: 29, IPC: 0.7739
TH2 ROB: 22 LSQ: 3 IQ: 13, IPC: 0.6311
TH3 ROB: 39 LSQ: 16 IQ: 32, IPC: 0.6957
EPOCH ENDS
EPOCH STARTS
TH0 ROB: 25 LSQ: 13 IQ: 21 IPC: 0.6369
TH1 ROB: 84 LSQ: 59 IQ: 20, IPC: 0.7738
TH2 ROB: 23 LSQ: 10 IQ: 14, IPC: 0.6310
TH3 ROB: 45 LSQ: 15 IQ: 41, IPC: 0.6958
EPOCH ENDS
EPOCH STARTS
TH0 ROB: 33 LSQ: 15 IQ: 30 IPC: 0.6369
TH1 ROB: 98 LSQ: 71 IQ: 27, IPC: 0.7738
TH2 ROB: 30 LSQ: 5 IQ: 28, IPC: 0.6312
TH3 ROB: 10 LSQ: 3 IQ: 7, IPC: 0.6956
EPOCH ENDS
EPOCH STARTS
TH0 ROB: 38 LSQ: 14 IQ: 36 IPC: 0.6369
TH1 ROB: 106 LSQ: 76 IQ: 37, IPC: 0.7742
TH2 ROB: 29 LSQ: 14 IQ: 20, IPC: 0.6314
TH3 ROB: 7 LSQ: 2 IQ: 3, IPC: 0.6950
EPOCH ENDS
EPOCH STARTS
TH0 ROB: 37 LSQ: 14 IQ: 29 IPC: 0.6368
TH1 ROB: 177 LSQ: 128 IQ: 13, IPC: 0.7741
TH2 ROB: 34 LSQ: 10 IQ: 33, IPC: 0.6319
TH3 ROB: 23 LSQ: 12 IQ: 21, IPC: 0.6946
EPOCH ENDS
EPOCH STARTS
TH0 ROB: 34 LSQ: 14 IQ: 31 IPC: 0.6370
TH1 ROB: 134 LSQ: 96 IQ: 13, IPC: 0.7743
TH2 ROB: 40 LSQ: 13 IQ: 35, IPC: 0.6318
TH3 ROB: 22 LSQ: 6 IQ: 17, IPC: 0.6944
EPOCH ENDS
EPOCH STARTS
TH0 ROB: 16 LSQ: 4 IQ: 12 IPC: 0.6372
TH1 ROB: 57 LSQ: 42 IQ: 32, IPC: 0.7745
TH2 ROB: 26 LSQ: 4 IQ: 18, IPC: 0.6318
TH3 ROB: 38 LSQ: 14 IQ: 34, IPC: 0.6940
EPOCH ENDS
EPOCH STARTS
TH0 ROB: 9 LSQ: 4 IQ: 5 IPC: 0.6371
TH1 ROB: 151 LSQ: 109 IQ: 49, IPC: 0.7747
TH2 ROB: 25 LSQ: 5 IQ: 22, IPC: 0.6315
TH3 ROB: 20 LSQ: 10 IQ: 20, IPC: 0.6941
EPOCH ENDS
EPOCH STARTS
TH0 ROB: 28 LSQ: 18 IQ: 24 IPC: 0.6369
TH1 ROB: 121 LSQ: 88 IQ: 31, IPC: 0.7747
TH2 ROB: 30 LSQ: 11 IQ: 16, IPC: 0.6316
TH3 ROB: 31 LSQ: 5 IQ: 25, IPC: 0.6941
EPOCH ENDS
EPOCH STARTS
TH0 ROB: 16 LSQ: 8 IQ: 11 IPC: 0.6371
TH1 ROB: 106 LSQ: 76 IQ: 42, IPC: 0.7747
TH2 ROB: 19 LSQ: 4 IQ: 14, IPC: 0.6315
TH3 ROB: 38 LSQ: 20 IQ: 29, IPC: 0.6941
EPOCH ENDS
EPOCH STARTS
TH0 ROB: 24 LSQ: 8 IQ: 20 IPC: 0.6370
TH1 ROB: 112 LSQ: 81 IQ: 27, IPC: 0.7745
TH2 ROB: 26 LSQ: 5 IQ: 22, IPC: 0.6318
TH3 ROB: 33 LSQ: 14 IQ: 27, IPC: 0.6942
EPOCH ENDS
EPOCH STARTS
TH0 ROB: 28 LSQ: 8 IQ: 24 IPC: 0.6368
TH1 ROB: 118 LSQ: 84 IQ: 28, IPC: 0.7750
TH2 ROB: 35 LSQ: 14 IQ: 31, IPC: 0.6317
TH3 ROB: 17 LSQ: 7 IQ: 13, IPC: 0.6939
EPOCH ENDS
EPOCH STARTS
TH0 ROB: 42 LSQ: 12 IQ: 38 IPC: 0.6367
TH1 ROB: 87 LSQ: 62 IQ: 30, IPC: 0.7750
TH2 ROB: 21 LSQ: 9 IQ: 15, IPC: 0.6319
TH3 ROB: 20 LSQ: 7 IQ: 13, IPC: 0.6938
EPOCH ENDS
EPOCH STARTS
TH0 ROB: 22 LSQ: 5 IQ: 17 IPC: 0.6366
TH1 ROB: 111 LSQ: 80 IQ: 21, IPC: 0.7751
TH2 ROB: 1 LSQ: 0 IQ: 0, IPC: 0.6319
TH3 ROB: 37 LSQ: 9 IQ: 30, IPC: 0.6937
EPOCH ENDS
EPOCH STARTS
TH0 ROB: 23 LSQ: 9 IQ: 19 IPC: 0.6365
TH1 ROB: 88 LSQ: 62 IQ: 42, IPC: 0.7749
TH2 ROB: 29 LSQ: 6 IQ: 22, IPC: 0.6320
TH3 ROB: 20 LSQ: 3 IQ: 13, IPC: 0.6939
EPOCH ENDS
EPOCH STARTS
TH0 ROB: 7 LSQ: 3 IQ: 3 IPC: 0.6367
TH1 ROB: 105 LSQ: 75 IQ: 23, IPC: 0.7747
TH2 ROB: 46 LSQ: 19 IQ: 39, IPC: 0.6323
TH3 ROB: 7 LSQ: 2 IQ: 3, IPC: 0.6938
EPOCH ENDS
EPOCH STARTS
TH0 ROB: 14 LSQ: 4 IQ: 10 IPC: 0.6369
TH1 ROB: 115 LSQ: 84 IQ: 34, IPC: 0.7744
TH2 ROB: 17 LSQ: 4 IQ: 10, IPC: 0.6322
TH3 ROB: 49 LSQ: 15 IQ: 42, IPC: 0.6940
EPOCH ENDS
EPOCH STARTS
TH0 ROB: 18 LSQ: 4 IQ: 14 IPC: 0.6370
TH1 ROB: 173 LSQ: 122 IQ: 55, IPC: 0.7741
TH2 ROB: 38 LSQ: 12 IQ: 21, IPC: 0.6323
TH3 ROB: 10 LSQ: 4 IQ: 6, IPC: 0.6943
EPOCH ENDS
EPOCH STARTS
TH0 ROB: 22 LSQ: 3 IQ: 16 IPC: 0.6369
TH1 ROB: 110 LSQ: 79 IQ: 21, IPC: 0.7739
TH2 ROB: 39 LSQ: 18 IQ: 37, IPC: 0.6321
TH3 ROB: 41 LSQ: 10 IQ: 22, IPC: 0.6946
EPOCH ENDS
EPOCH STARTS
TH0 ROB: 35 LSQ: 14 IQ: 31 IPC: 0.6368
TH1 ROB: 112 LSQ: 81 IQ: 10, IPC: 0.7740
TH2 ROB: 39 LSQ: 9 IQ: 29, IPC: 0.6323
TH3 ROB: 30 LSQ: 10 IQ: 26, IPC: 0.6945
EPOCH ENDS
EPOCH STARTS
TH0 ROB: 32 LSQ: 5 IQ: 28 IPC: 0.6367
TH1 ROB: 121 LSQ: 88 IQ: 30, IPC: 0.7744
TH2 ROB: 40 LSQ: 17 IQ: 34, IPC: 0.6322
TH3 ROB: 8 LSQ: 1 IQ: 4, IPC: 0.6942
EPOCH ENDS
EPOCH STARTS
TH0 ROB: 28 LSQ: 15 IQ: 24 IPC: 0.6365
TH1 ROB: 109 LSQ: 78 IQ: 22, IPC: 0.7748
TH2 ROB: 33 LSQ: 10 IQ: 25, IPC: 0.6322
TH3 ROB: 31 LSQ: 7 IQ: 25, IPC: 0.6940
EPOCH ENDS
EPOCH STARTS
TH0 ROB: 37 LSQ: 11 IQ: 29 IPC: 0.6364
TH1 ROB: 103 LSQ: 75 IQ: 18, IPC: 0.7747
TH2 ROB: 37 LSQ: 7 IQ: 37, IPC: 0.6324
TH3 ROB: 19 LSQ: 11 IQ: 12, IPC: 0.6940
EPOCH ENDS
EPOCH STARTS
TH0 ROB: 48 LSQ: 13 IQ: 33 IPC: 0.6363
TH1 ROB: 105 LSQ: 76 IQ: 11, IPC: 0.7748
TH2 ROB: 36 LSQ: 16 IQ: 31, IPC: 0.6325
TH3 ROB: 25 LSQ: 6 IQ: 21, IPC: 0.6939
EPOCH ENDS
EPOCH STARTS
TH0 ROB: 42 LSQ: 16 IQ: 36 IPC: 0.6364
TH1 ROB: 112 LSQ: 80 IQ: 25, IPC: 0.7746
TH2 ROB: 15 LSQ: 5 IQ: 11, IPC: 0.6324
TH3 ROB: 73 LSQ: 28 IQ: 24, IPC: 0.6939
EPOCH ENDS
EPOCH STARTS
TH0 ROB: 20 LSQ: 8 IQ: 14 IPC: 0.6365
TH1 ROB: 105 LSQ: 76 IQ: 22, IPC: 0.7747
TH2 ROB: 35 LSQ: 14 IQ: 33, IPC: 0.6322
TH3 ROB: 31 LSQ: 8 IQ: 27, IPC: 0.6939
EPOCH ENDS
EPOCH STARTS
TH0 ROB: 27 LSQ: 9 IQ: 22 IPC: 0.6365
TH1 ROB: 118 LSQ: 85 IQ: 19, IPC: 0.7748
TH2 ROB: 34 LSQ: 12 IQ: 30, IPC: 0.6321
TH3 ROB: 31 LSQ: 7 IQ: 25, IPC: 0.6938
EPOCH ENDS
EPOCH STARTS
TH0 ROB: 28 LSQ: 8 IQ: 24 IPC: 0.6367
TH1 ROB: 65 LSQ: 47 IQ: 17, IPC: 0.7749
TH2 ROB: 38 LSQ: 17 IQ: 31, IPC: 0.6321
TH3 ROB: 30 LSQ: 16 IQ: 24, IPC: 0.6936
EPOCH ENDS
EPOCH STARTS
TH0 ROB: 32 LSQ: 11 IQ: 22 IPC: 0.6365
TH1 ROB: 100 LSQ: 73 IQ: 29, IPC: 0.7750
TH2 ROB: 25 LSQ: 5 IQ: 21, IPC: 0.6322
TH3 ROB: 31 LSQ: 5 IQ: 24, IPC: 0.6936
EPOCH ENDS
EPOCH STARTS
TH0 ROB: 19 LSQ: 7 IQ: 13 IPC: 0.6367
TH1 ROB: 87 LSQ: 62 IQ: 13, IPC: 0.7747
TH2 ROB: 49 LSQ: 10 IQ: 40, IPC: 0.6322
TH3 ROB: 30 LSQ: 16 IQ: 30, IPC: 0.6937
EPOCH ENDS
EPOCH STARTS
TH0 ROB: 40 LSQ: 16 IQ: 35 IPC: 0.6367
TH1 ROB: 138 LSQ: 99 IQ: 22, IPC: 0.7746
TH2 ROB: 10 LSQ: 1 IQ: 6, IPC: 0.6321
TH3 ROB: 41 LSQ: 14 IQ: 33, IPC: 0.6938
EPOCH ENDS
EPOCH STARTS
TH0 ROB: 37 LSQ: 16 IQ: 33 IPC: 0.6368
TH1 ROB: 94 LSQ: 68 IQ: 26, IPC: 0.7744
TH2 ROB: 16 LSQ: 9 IQ: 12, IPC: 0.6323
TH3 ROB: 35 LSQ: 13 IQ: 25, IPC: 0.6937
EPOCH ENDS
EPOCH STARTS
TH0 ROB: 11 LSQ: 8 IQ: 7 IPC: 0.6368
TH1 ROB: 91 LSQ: 65 IQ: 27, IPC: 0.7746
TH2 ROB: 9 LSQ: 1 IQ: 5, IPC: 0.6323
TH3 ROB: 66 LSQ: 14 IQ: 57, IPC: 0.6933
EPOCH ENDS
EPOCH STARTS
TH0 ROB: 16 LSQ: 6 IQ: 10 IPC: 0.6368
TH1 ROB: 122 LSQ: 87 IQ: 34, IPC: 0.7745
TH2 ROB: 40 LSQ: 21 IQ: 30, IPC: 0.6322
TH3 ROB: 38 LSQ: 9 IQ: 22, IPC: 0.6933
EPOCH ENDS
EPOCH STARTS
TH0 ROB: 0 LSQ: 0 IQ: 0 IPC: 0.6368
TH1 ROB: 87 LSQ: 62 IQ: 16, IPC: 0.7744
TH2 ROB: 35 LSQ: 15 IQ: 31, IPC: 0.6319
TH3 ROB: 48 LSQ: 9 IQ: 37, IPC: 0.6935
EPOCH ENDS
EPOCH STARTS
TH0 ROB: 37 LSQ: 13 IQ: 29 IPC: 0.6368
TH1 ROB: 99 LSQ: 72 IQ: 36, IPC: 0.7746
TH2 ROB: 17 LSQ: 5 IQ: 13, IPC: 0.6318
TH3 ROB: 41 LSQ: 17 IQ: 18, IPC: 0.6935
EPOCH ENDS
EPOCH STARTS
TH0 ROB: 25 LSQ: 8 IQ: 18 IPC: 0.6366
TH1 ROB: 91 LSQ: 65 IQ: 24, IPC: 0.7746
TH2 ROB: 32 LSQ: 10 IQ: 20, IPC: 0.6319
TH3 ROB: 37 LSQ: 8 IQ: 34, IPC: 0.6934
EPOCH ENDS
EPOCH STARTS
TH0 ROB: 0 LSQ: 0 IQ: 0 IPC: 0.6365
TH1 ROB: 120 LSQ: 87 IQ: 43, IPC: 0.7746
TH2 ROB: 29 LSQ: 8 IQ: 24, IPC: 0.6320
TH3 ROB: 11 LSQ: 3 IQ: 4, IPC: 0.6935
EPOCH ENDS
EPOCH STARTS
TH0 ROB: 31 LSQ: 15 IQ: 31 IPC: 0.6364
TH1 ROB: 99 LSQ: 72 IQ: 29, IPC: 0.7746
TH2 ROB: 21 LSQ: 6 IQ: 17, IPC: 0.6320
TH3 ROB: 23 LSQ: 6 IQ: 19, IPC: 0.6936
EPOCH ENDS
EPOCH STARTS
TH0 ROB: 26 LSQ: 8 IQ: 22 IPC: 0.6363
TH1 ROB: 102 LSQ: 74 IQ: 29, IPC: 0.7745
TH2 ROB: 25 LSQ: 7 IQ: 21, IPC: 0.6322
TH3 ROB: 35 LSQ: 8 IQ: 24, IPC: 0.6936
EPOCH ENDS
EPOCH STARTS
TH0 ROB: 17 LSQ: 4 IQ: 13 IPC: 0.6362
TH1 ROB: 91 LSQ: 65 IQ: 28, IPC: 0.7744
TH2 ROB: 39 LSQ: 21 IQ: 32, IPC: 0.6321
TH3 ROB: 30 LSQ: 6 IQ: 23, IPC: 0.6938
EPOCH ENDS
EPOCH STARTS
TH0 ROB: 21 LSQ: 5 IQ: 18 IPC: 0.6361
TH1 ROB: 75 LSQ: 54 IQ: 12, IPC: 0.7746
TH2 ROB: 95 LSQ: 41 IQ: 23, IPC: 0.6319
TH3 ROB: 18 LSQ: 2 IQ: 12, IPC: 0.6939
EPOCH ENDS
EPOCH STARTS
TH0 ROB: 7 LSQ: 3 IQ: 3 IPC: 0.6358
TH1 ROB: 140 LSQ: 100 IQ: 42, IPC: 0.7748
TH2 ROB: 32 LSQ: 15 IQ: 26, IPC: 0.6319
TH3 ROB: 20 LSQ: 6 IQ: 13, IPC: 0.6939
EPOCH ENDS
EPOCH STARTS
TH0 ROB: 18 LSQ: 8 IQ: 12 IPC: 0.6358
TH1 ROB: 92 LSQ: 66 IQ: 26, IPC: 0.7750
TH2 ROB: 36 LSQ: 17 IQ: 30, IPC: 0.6317
TH3 ROB: 32 LSQ: 5 IQ: 28, IPC: 0.6939
EPOCH ENDS
EPOCH STARTS
TH0 ROB: 22 LSQ: 9 IQ: 18 IPC: 0.6355
TH1 ROB: 178 LSQ: 128 IQ: 25, IPC: 0.7753
TH2 ROB: 37 LSQ: 8 IQ: 37, IPC: 0.6317
TH3 ROB: 20 LSQ: 4 IQ: 16, IPC: 0.6937
EPOCH ENDS
EPOCH STARTS
TH0 ROB: 21 LSQ: 9 IQ: 17 IPC: 0.6354
TH1 ROB: 83 LSQ: 60 IQ: 0, IPC: 0.7756
TH2 ROB: 59 LSQ: 26 IQ: 51, IPC: 0.6316
TH3 ROB: 31 LSQ: 6 IQ: 28, IPC: 0.6935
EPOCH ENDS
EPOCH STARTS
TH0 ROB: 27 LSQ: 15 IQ: 19 IPC: 0.6355
TH1 ROB: 104 LSQ: 75 IQ: 35, IPC: 0.7757
TH2 ROB: 13 LSQ: 3 IQ: 9, IPC: 0.6316
TH3 ROB: 37 LSQ: 16 IQ: 33, IPC: 0.6933
EPOCH ENDS
EPOCH STARTS
TH0 ROB: 35 LSQ: 14 IQ: 30 IPC: 0.6354
TH1 ROB: 145 LSQ: 103 IQ: 42, IPC: 0.7760
TH2 ROB: 24 LSQ: 9 IQ: 20, IPC: 0.6315
TH3 ROB: 8 LSQ: 3 IQ: 4, IPC: 0.6930
EPOCH ENDS
EPOCH STARTS
TH0 ROB: 21 LSQ: 8 IQ: 15 IPC: 0.6353
TH1 ROB: 92 LSQ: 66 IQ: 20, IPC: 0.7761
TH2 ROB: 35 LSQ: 8 IQ: 31, IPC: 0.6316
TH3 ROB: 34 LSQ: 12 IQ: 30, IPC: 0.6928
EPOCH ENDS
EPOCH STARTS
TH0 ROB: 24 LSQ: 10 IQ: 15 IPC: 0.6354
TH1 ROB: 72 LSQ: 52 IQ: 30, IPC: 0.7763
TH2 ROB: 24 LSQ: 10 IQ: 20, IPC: 0.6314
TH3 ROB: 36 LSQ: 14 IQ: 31, IPC: 0.6925
EPOCH ENDS
EPOCH STARTS
TH0 ROB: 39 LSQ: 13 IQ: 27 IPC: 0.6353
TH1 ROB: 91 LSQ: 65 IQ: 18, IPC: 0.7762
TH2 ROB: 35 LSQ: 17 IQ: 34, IPC: 0.6312
TH3 ROB: 7 LSQ: 6 IQ: 3, IPC: 0.6927
EPOCH ENDS
EPOCH STARTS
TH0 ROB: 18 LSQ: 7 IQ: 14 IPC: 0.6354
TH1 ROB: 96 LSQ: 70 IQ: 13, IPC: 0.7761
TH2 ROB: 50 LSQ: 20 IQ: 46, IPC: 0.6314
TH3 ROB: 27 LSQ: 6 IQ: 23, IPC: 0.6927
EPOCH ENDS
EPOCH STARTS
TH0 ROB: 37 LSQ: 16 IQ: 33 IPC: 0.6354
TH1 ROB: 88 LSQ: 62 IQ: 16, IPC: 0.7759
TH2 ROB: 30 LSQ: 6 IQ: 26, IPC: 0.6316
TH3 ROB: 25 LSQ: 4 IQ: 21, IPC: 0.6927
EPOCH ENDS
EPOCH STARTS
TH0 ROB: 8 LSQ: 3 IQ: 4 IPC: 0.6355
TH1 ROB: 55 LSQ: 38 IQ: 25, IPC: 0.7760
TH2 ROB: 36 LSQ: 12 IQ: 35, IPC: 0.6316
TH3 ROB: 27 LSQ: 18 IQ: 23, IPC: 0.6926
EPOCH ENDS
EPOCH STARTS
TH0 ROB: 26 LSQ: 8 IQ: 22 IPC: 0.6354
TH1 ROB: 168 LSQ: 121 IQ: 20, IPC: 0.7759
TH2 ROB: 33 LSQ: 12 IQ: 25, IPC: 0.6316
TH3 ROB: 35 LSQ: 9 IQ: 29, IPC: 0.6927
EPOCH ENDS
EPOCH STARTS
TH0 ROB: 24 LSQ: 9 IQ: 17 IPC: 0.6354
TH1 ROB: 72 LSQ: 52 IQ: 11, IPC: 0.7758
TH2 ROB: 44 LSQ: 20 IQ: 43, IPC: 0.6316
TH3 ROB: 31 LSQ: 11 IQ: 25, IPC: 0.6927
EPOCH ENDS
EPOCH STARTS
TH0 ROB: 22 LSQ: 9 IQ: 12 IPC: 0.6353
TH1 ROB: 79 LSQ: 57 IQ: 39, IPC: 0.7758
TH2 ROB: 20 LSQ: 7 IQ: 14, IPC: 0.6318
TH3 ROB: 35 LSQ: 6 IQ: 31, IPC: 0.6926
EPOCH ENDS
EPOCH STARTS
TH0 ROB: 35 LSQ: 7 IQ: 30 IPC: 0.6355
TH1 ROB: 105 LSQ: 76 IQ: 18, IPC: 0.7758
TH2 ROB: 27 LSQ: 10 IQ: 22, IPC: 0.6317
TH3 ROB: 36 LSQ: 9 IQ: 26, IPC: 0.6924
EPOCH ENDS
EPOCH STARTS
TH0 ROB: 30 LSQ: 4 IQ: 22 IPC: 0.6354
TH1 ROB: 114 LSQ: 82 IQ: 6, IPC: 0.7759
TH2 ROB: 43 LSQ: 9 IQ: 37, IPC: 0.6317
TH3 ROB: 37 LSQ: 9 IQ: 31, IPC: 0.6924
EPOCH ENDS
EPOCH STARTS
TH0 ROB: 7 LSQ: 1 IQ: 3 IPC: 0.6354
TH1 ROB: 148 LSQ: 105 IQ: 38, IPC: 0.7758
TH2 ROB: 23 LSQ: 7 IQ: 23, IPC: 0.6319
TH3 ROB: 32 LSQ: 13 IQ: 32, IPC: 0.6925
EPOCH ENDS
EPOCH STARTS
TH0 ROB: 10 LSQ: 7 IQ: 6 IPC: 0.6354
TH1 ROB: 101 LSQ: 74 IQ: 27, IPC: 0.7756
TH2 ROB: 24 LSQ: 11 IQ: 19, IPC: 0.6320
TH3 ROB: 37 LSQ: 15 IQ: 27, IPC: 0.6926
EPOCH ENDS
EPOCH STARTS
TH0 ROB: 31 LSQ: 12 IQ: 27 IPC: 0.6353
TH1 ROB: 77 LSQ: 55 IQ: 17, IPC: 0.7758
TH2 ROB: 28 LSQ: 10 IQ: 23, IPC: 0.6319
TH3 ROB: 33 LSQ: 10 IQ: 29, IPC: 0.6925
EPOCH ENDS
EPOCH STARTS
TH0 ROB: 32 LSQ: 8 IQ: 24 IPC: 0.6353
TH1 ROB: 131 LSQ: 94 IQ: 26, IPC: 0.7758
TH2 ROB: 10 LSQ: 4 IQ: 6, IPC: 0.6321
TH3 ROB: 40 LSQ: 7 IQ: 40, IPC: 0.6923
EPOCH ENDS
EPOCH STARTS
TH0 ROB: 22 LSQ: 9 IQ: 16 IPC: 0.6354
TH1 ROB: 86 LSQ: 62 IQ: 10, IPC: 0.7758
TH2 ROB: 37 LSQ: 6 IQ: 35, IPC: 0.6322
TH3 ROB: 45 LSQ: 16 IQ: 35, IPC: 0.6922
EPOCH ENDS
EPOCH STARTS
TH0 ROB: 15 LSQ: 5 IQ: 11 IPC: 0.6353
TH1 ROB: 97 LSQ: 70 IQ: 3, IPC: 0.7758
TH2 ROB: 72 LSQ: 26 IQ: 62, IPC: 0.6322
TH3 ROB: 23 LSQ: 6 IQ: 20, IPC: 0.6922
EPOCH ENDS
EPOCH STARTS
TH0 ROB: 45 LSQ: 16 IQ: 45 IPC: 0.6352
TH1 ROB: 126 LSQ: 90 IQ: 29, IPC: 0.7758
TH2 ROB: 26 LSQ: 4 IQ: 22, IPC: 0.6322
TH3 ROB: 4 LSQ: 1 IQ: 0, IPC: 0.6924
EPOCH ENDS
EPOCH STARTS
TH0 ROB: 0 LSQ: 0 IQ: 0 IPC: 0.6352
TH1 ROB: 79 LSQ: 57 IQ: 9, IPC: 0.7758
TH2 ROB: 34 LSQ: 8 IQ: 30, IPC: 0.6321
TH3 ROB: 34 LSQ: 19 IQ: 30, IPC: 0.6926
EPOCH ENDS
EPOCH STARTS
TH0 ROB: 38 LSQ: 16 IQ: 36 IPC: 0.6352
TH1 ROB: 122 LSQ: 88 IQ: 25, IPC: 0.7756
TH2 ROB: 17 LSQ: 6 IQ: 13, IPC: 0.6323
TH3 ROB: 33 LSQ: 8 IQ: 22, IPC: 0.6926
EPOCH ENDS
EPOCH STARTS
TH0 ROB: 28 LSQ: 11 IQ: 23 IPC: 0.6353
TH1 ROB: 127 LSQ: 91 IQ: 22, IPC: 0.7756
TH2 ROB: 28 LSQ: 10 IQ: 25, IPC: 0.6324
TH3 ROB: 21 LSQ: 4 IQ: 21, IPC: 0.6924
EPOCH ENDS
EPOCH STARTS
TH0 ROB: 18 LSQ: 3 IQ: 14 IPC: 0.6352
TH1 ROB: 90 LSQ: 64 IQ: 6, IPC: 0.7756
TH2 ROB: 33 LSQ: 9 IQ: 33, IPC: 0.6325
TH3 ROB: 58 LSQ: 12 IQ: 43, IPC: 0.6924
EPOCH ENDS
EPOCH STARTS
TH0 ROB: 38 LSQ: 13 IQ: 32 IPC: 0.6352
TH1 ROB: 96 LSQ: 70 IQ: 23, IPC: 0.7756
TH2 ROB: 26 LSQ: 12 IQ: 18, IPC: 0.6326
TH3 ROB: 27 LSQ: 15 IQ: 23, IPC: 0.6925
EPOCH ENDS
EPOCH STARTS
TH0 ROB: 28 LSQ: 2 IQ: 24 IPC: 0.6352
TH1 ROB: 74 LSQ: 54 IQ: 19, IPC: 0.7755
TH2 ROB: 27 LSQ: 6 IQ: 20, IPC: 0.6325
TH3 ROB: 41 LSQ: 18 IQ: 33, IPC: 0.6927
EPOCH ENDS
EPOCH STARTS
TH0 ROB: 38 LSQ: 12 IQ: 38 IPC: 0.6353
TH1 ROB: 92 LSQ: 66 IQ: 17, IPC: 0.7752
TH2 ROB: 25 LSQ: 11 IQ: 19, IPC: 0.6325
TH3 ROB: 26 LSQ: 12 IQ: 22, IPC: 0.6929
EPOCH ENDS
EPOCH STARTS
TH0 ROB: 29 LSQ: 10 IQ: 17 IPC: 0.6353
TH1 ROB: 117 LSQ: 85 IQ: 23, IPC: 0.7753
TH2 ROB: 38 LSQ: 8 IQ: 34, IPC: 0.6325
TH3 ROB: 30 LSQ: 9 IQ: 22, IPC: 0.6929
EPOCH ENDS
EPOCH STARTS
TH0 ROB: 44 LSQ: 19 IQ: 40 IPC: 0.6353
TH1 ROB: 93 LSQ: 67 IQ: 11, IPC: 0.7753
TH2 ROB: 35 LSQ: 7 IQ: 31, IPC: 0.6325
TH3 ROB: 31 LSQ: 6 IQ: 14, IPC: 0.6929
EPOCH ENDS
EPOCH STARTS
TH0 ROB: 38 LSQ: 16 IQ: 33 IPC: 0.6353
TH1 ROB: 71 LSQ: 52 IQ: 31, IPC: 0.7754
TH2 ROB: 11 LSQ: 4 IQ: 8, IPC: 0.6324
TH3 ROB: 24 LSQ: 5 IQ: 20, IPC: 0.6929
EPOCH ENDS
EPOCH STARTS
TH0 ROB: 33 LSQ: 10 IQ: 29 IPC: 0.6352
TH1 ROB: 120 LSQ: 87 IQ: 47, IPC: 0.7754
TH2 ROB: 14 LSQ: 5 IQ: 10, IPC: 0.6324
TH3 ROB: 20 LSQ: 7 IQ: 10, IPC: 0.6929
EPOCH ENDS
EPOCH STARTS
TH0 ROB: 37 LSQ: 15 IQ: 30 IPC: 0.6353
TH1 ROB: 82 LSQ: 58 IQ: 18, IPC: 0.7754
TH2 ROB: 7 LSQ: 3 IQ: 3, IPC: 0.6324
TH3 ROB: 49 LSQ: 16 IQ: 45, IPC: 0.6927
EPOCH ENDS
EPOCH STARTS
TH0 ROB: 36 LSQ: 16 IQ: 31 IPC: 0.6353
TH1 ROB: 86 LSQ: 62 IQ: 19, IPC: 0.7752
TH2 ROB: 32 LSQ: 15 IQ: 28, IPC: 0.6325
TH3 ROB: 23 LSQ: 9 IQ: 18, IPC: 0.6929
EPOCH ENDS
EPOCH STARTS
TH0 ROB: 35 LSQ: 13 IQ: 34 IPC: 0.6353
TH1 ROB: 122 LSQ: 88 IQ: 31, IPC: 0.7753
TH2 ROB: 22 LSQ: 6 IQ: 17, IPC: 0.6325
TH3 ROB: 23 LSQ: 5 IQ: 14, IPC: 0.6928
EPOCH ENDS
EPOCH STARTS
TH0 ROB: 34 LSQ: 15 IQ: 23 IPC: 0.6352
TH1 ROB: 170 LSQ: 122 IQ: 30, IPC: 0.7754
TH2 ROB: 38 LSQ: 8 IQ: 34, IPC: 0.6325
TH3 ROB: 13 LSQ: 2 IQ: 9, IPC: 0.6928
EPOCH ENDS
EPOCH STARTS
TH0 ROB: 14 LSQ: 4 IQ: 10 IPC: 0.6352
TH1 ROB: 95 LSQ: 69 IQ: 42, IPC: 0.7753
TH2 ROB: 22 LSQ: 4 IQ: 18, IPC: 0.6325
TH3 ROB: 30 LSQ: 20 IQ: 26, IPC: 0.6930
EPOCH ENDS
EPOCH STARTS
TH0 ROB: 42 LSQ: 16 IQ: 42 IPC: 0.6351
TH1 ROB: 124 LSQ: 89 IQ: 26, IPC: 0.7753
TH2 ROB: 23 LSQ: 8 IQ: 15, IPC: 0.6324
TH3 ROB: 18 LSQ: 4 IQ: 13, IPC: 0.6932
EPOCH ENDS
EPOCH STARTS
TH0 ROB: 31 LSQ: 7 IQ: 28 IPC: 0.6352
TH1 ROB: 122 LSQ: 88 IQ: 20, IPC: 0.7752
TH2 ROB: 15 LSQ: 5 IQ: 11, IPC: 0.6322
TH3 ROB: 35 LSQ: 20 IQ: 35, IPC: 0.6934
EPOCH ENDS
EPOCH STARTS
TH0 ROB: 25 LSQ: 12 IQ: 18 IPC: 0.6351
TH1 ROB: 122 LSQ: 87 IQ: 24, IPC: 0.7753
TH2 ROB: 31 LSQ: 11 IQ: 27, IPC: 0.6321
TH3 ROB: 31 LSQ: 5 IQ: 27, IPC: 0.6934
EPOCH ENDS
EPOCH STARTS
TH0 ROB: 24 LSQ: 8 IQ: 18 IPC: 0.6351
TH1 ROB: 85 LSQ: 61 IQ: 46, IPC: 0.7753
TH2 ROB: 28 LSQ: 12 IQ: 26, IPC: 0.6323
TH3 ROB: 0 LSQ: 0 IQ: 0, IPC: 0.6933
EPOCH ENDS
EPOCH STARTS
TH0 ROB: 35 LSQ: 12 IQ: 31 IPC: 0.6352
TH1 ROB: 102 LSQ: 74 IQ: 39, IPC: 0.7753
TH2 ROB: 23 LSQ: 4 IQ: 8, IPC: 0.6322
TH3 ROB: 23 LSQ: 4 IQ: 18, IPC: 0.6933
EPOCH ENDS
EPOCH STARTS
TH0 ROB: 36 LSQ: 11 IQ: 30 IPC: 0.6352
TH1 ROB: 78 LSQ: 56 IQ: 37, IPC: 0.7753
TH2 ROB: 24 LSQ: 10 IQ: 19, IPC: 0.6323
TH3 ROB: 17 LSQ: 8 IQ: 10, IPC: 0.6933
EPOCH ENDS
EPOCH STARTS
TH0 ROB: 34 LSQ: 12 IQ: 30 IPC: 0.6351
TH1 ROB: 108 LSQ: 77 IQ: 13, IPC: 0.7753
TH2 ROB: 16 LSQ: 5 IQ: 11, IPC: 0.6323
TH3 ROB: 42 LSQ: 22 IQ: 42, IPC: 0.6934
EPOCH ENDS
EPOCH STARTS
TH0 ROB: 17 LSQ: 8 IQ: 12 IPC: 0.6352
TH1 ROB: 95 LSQ: 69 IQ: 21, IPC: 0.7751
TH2 ROB: 3 LSQ: 2 IQ: 0, IPC: 0.6322
TH3 ROB: 13 LSQ: 4 IQ: 9, IPC: 0.6935
EPOCH ENDS
EPOCH STARTS
TH0 ROB: 33 LSQ: 8 IQ: 27 IPC: 0.6352
TH1 ROB: 170 LSQ: 122 IQ: 25, IPC: 0.7751
TH2 ROB: 20 LSQ: 10 IQ: 16, IPC: 0.6323
TH3 ROB: 29 LSQ: 14 IQ: 28, IPC: 0.6934
EPOCH ENDS
EPOCH STARTS
TH0 ROB: 11 LSQ: 3 IQ: 7 IPC: 0.6352
TH1 ROB: 69 LSQ: 51 IQ: 12, IPC: 0.7752
TH2 ROB: 57 LSQ: 12 IQ: 53, IPC: 0.6324
TH3 ROB: 34 LSQ: 9 IQ: 24, IPC: 0.6933
EPOCH ENDS
EPOCH STARTS
TH0 ROB: 24 LSQ: 9 IQ: 20 IPC: 0.6353
TH1 ROB: 109 LSQ: 78 IQ: 29, IPC: 0.7751
TH2 ROB: 32 LSQ: 13 IQ: 25, IPC: 0.6325
TH3 ROB: 26 LSQ: 18 IQ: 22, IPC: 0.6933
EPOCH ENDS
EPOCH STARTS
TH0 ROB: 34 LSQ: 13 IQ: 29 IPC: 0.6352
TH1 ROB: 59 LSQ: 44 IQ: 16, IPC: 0.7752
TH2 ROB: 40 LSQ: 15 IQ: 36, IPC: 0.6324
TH3 ROB: 19 LSQ: 6 IQ: 15, IPC: 0.6934
EPOCH ENDS
EPOCH STARTS
TH0 ROB: 37 LSQ: 13 IQ: 31 IPC: 0.6352
TH1 ROB: 87 LSQ: 63 IQ: 15, IPC: 0.7753
TH2 ROB: 0 LSQ: 0 IQ: 0, IPC: 0.6324
TH3 ROB: 36 LSQ: 12 IQ: 20, IPC: 0.6932
EPOCH ENDS
EPOCH STARTS
TH0 ROB: 20 LSQ: 8 IQ: 12 IPC: 0.6351
TH1 ROB: 95 LSQ: 69 IQ: 27, IPC: 0.7752
TH2 ROB: 37 LSQ: 8 IQ: 33, IPC: 0.6323
TH3 ROB: 29 LSQ: 10 IQ: 24, IPC: 0.6934
EPOCH ENDS
EPOCH STARTS
TH0 ROB: 19 LSQ: 6 IQ: 15 IPC: 0.6350
TH1 ROB: 91 LSQ: 65 IQ: 16, IPC: 0.7752
TH2 ROB: 63 LSQ: 14 IQ: 54, IPC: 0.6322
TH3 ROB: 17 LSQ: 8 IQ: 11, IPC: 0.6935
EPOCH ENDS
EPOCH STARTS
TH0 ROB: 43 LSQ: 17 IQ: 43 IPC: 0.6349
TH1 ROB: 161 LSQ: 117 IQ: 30, IPC: 0.7752
TH2 ROB: 27 LSQ: 8 IQ: 23, IPC: 0.6321
TH3 ROB: 4 LSQ: 3 IQ: 0, IPC: 0.6935
EPOCH ENDS
EPOCH STARTS
TH0 ROB: 9 LSQ: 6 IQ: 5 IPC: 0.6349
TH1 ROB: 47 LSQ: 34 IQ: 18, IPC: 0.7752
TH2 ROB: 76 LSQ: 26 IQ: 66, IPC: 0.6321
TH3 ROB: 11 LSQ: 3 IQ: 7, IPC: 0.6935
EPOCH ENDS
EPOCH STARTS
TH0 ROB: 11 LSQ: 1 IQ: 7 IPC: 0.6347
TH1 ROB: 100 LSQ: 73 IQ: 4, IPC: 0.7752
TH2 ROB: 31 LSQ: 12 IQ: 19, IPC: 0.6320
TH3 ROB: 70 LSQ: 20 IQ: 66, IPC: 0.6936
EPOCH ENDS
EPOCH STARTS
TH0 ROB: 39 LSQ: 16 IQ: 39 IPC: 0.6347
TH1 ROB: 91 LSQ: 65 IQ: 13, IPC: 0.7752
TH2 ROB: 17 LSQ: 5 IQ: 9, IPC: 0.6320
TH3 ROB: 42 LSQ: 14 IQ: 35, IPC: 0.6935
EPOCH ENDS
EPOCH STARTS
TH0 ROB: 14 LSQ: 7 IQ: 8 IPC: 0.6346
TH1 ROB: 146 LSQ: 105 IQ: 55, IPC: 0.7751
TH2 ROB: 36 LSQ: 13 IQ: 30, IPC: 0.6319
TH3 ROB: 11 LSQ: 2 IQ: 3, IPC: 0.6937
EPOCH ENDS
EPOCH STARTS
TH0 ROB: 21 LSQ: 4 IQ: 17 IPC: 0.6346
TH1 ROB: 73 LSQ: 53 IQ: 23, IPC: 0.7751
TH2 ROB: 28 LSQ: 10 IQ: 23, IPC: 0.6318
TH3 ROB: 34 LSQ: 15 IQ: 27, IPC: 0.6938
EPOCH ENDS
EPOCH STARTS
TH0 ROB: 42 LSQ: 18 IQ: 37 IPC: 0.6345
TH1 ROB: 100 LSQ: 71 IQ: 27, IPC: 0.7750
TH2 ROB: 40 LSQ: 8 IQ: 22, IPC: 0.6318
TH3 ROB: 14 LSQ: 11 IQ: 10, IPC: 0.6938
EPOCH ENDS
EPOCH STARTS
TH0 ROB: 68 LSQ: 18 IQ: 22 IPC: 0.6345
TH1 ROB: 91 LSQ: 65 IQ: 28, IPC: 0.7750
TH2 ROB: 29 LSQ: 12 IQ: 25, IPC: 0.6318
TH3 ROB: 32 LSQ: 8 IQ: 21, IPC: 0.6938
EPOCH ENDS
EPOCH STARTS
TH0 ROB: 44 LSQ: 17 IQ: 40 IPC: 0.6344
TH1 ROB: 107 LSQ: 77 IQ: 19, IPC: 0.7749
TH2 ROB: 17 LSQ: 3 IQ: 13, IPC: 0.6317
TH3 ROB: 28 LSQ: 14 IQ: 24, IPC: 0.6939
EPOCH ENDS
EPOCH STARTS
TH0 ROB: 31 LSQ: 11 IQ: 23 IPC: 0.6344
TH1 ROB: 112 LSQ: 81 IQ: 20, IPC: 0.7748
TH2 ROB: 34 LSQ: 6 IQ: 30, IPC: 0.6316
TH3 ROB: 29 LSQ: 19 IQ: 23, IPC: 0.6942
EPOCH ENDS
EPOCH STARTS
TH0 ROB: 10 LSQ: 4 IQ: 6 IPC: 0.6343
TH1 ROB: 146 LSQ: 105 IQ: 60, IPC: 0.7747
TH2 ROB: 25 LSQ: 12 IQ: 17, IPC: 0.6317
TH3 ROB: 17 LSQ: 7 IQ: 13, IPC: 0.6942
EPOCH ENDS
EPOCH STARTS
TH0 ROB: 21 LSQ: 9 IQ: 11 IPC: 0.6343
TH1 ROB: 78 LSQ: 56 IQ: 31, IPC: 0.7745
TH2 ROB: 25 LSQ: 6 IQ: 21, IPC: 0.6316
TH3 ROB: 34 LSQ: 18 IQ: 33, IPC: 0.6943
EPOCH ENDS
EPOCH STARTS
TH0 ROB: 26 LSQ: 10 IQ: 22 IPC: 0.6342
TH1 ROB: 81 LSQ: 58 IQ: 28, IPC: 0.7745
TH2 ROB: 34 LSQ: 11 IQ: 29, IPC: 0.6315
TH3 ROB: 21 LSQ: 9 IQ: 17, IPC: 0.6944
EPOCH ENDS
EPOCH STARTS
TH0 ROB: 40 LSQ: 10 IQ: 38 IPC: 0.6342
TH1 ROB: 114 LSQ: 83 IQ: 19, IPC: 0.7744
TH2 ROB: 17 LSQ: 4 IQ: 13, IPC: 0.6314
TH3 ROB: 52 LSQ: 20 IQ: 26, IPC: 0.6944
EPOCH ENDS
EPOCH STARTS
TH0 ROB: 20 LSQ: 8 IQ: 16 IPC: 0.6342
TH1 ROB: 83 LSQ: 59 IQ: 18, IPC: 0.7743
TH2 ROB: 44 LSQ: 11 IQ: 33, IPC: 0.6314
TH3 ROB: 33 LSQ: 11 IQ: 29, IPC: 0.6945
EPOCH ENDS
EPOCH STARTS
TH0 ROB: 32 LSQ: 13 IQ: 25 IPC: 0.6341
TH1 ROB: 101 LSQ: 74 IQ: 20, IPC: 0.7743
TH2 ROB: 21 LSQ: 7 IQ: 17, IPC: 0.6314
TH3 ROB: 38 LSQ: 12 IQ: 34, IPC: 0.6946
EPOCH ENDS
EPOCH STARTS
TH0 ROB: 22 LSQ: 9 IQ: 15 IPC: 0.6340
TH1 ROB: 112 LSQ: 80 IQ: 24, IPC: 0.7743
TH2 ROB: 38 LSQ: 8 IQ: 32, IPC: 0.6313
TH3 ROB: 32 LSQ: 6 IQ: 25, IPC: 0.6947
EPOCH ENDS
EPOCH STARTS
TH0 ROB: 44 LSQ: 17 IQ: 44 IPC: 0.6340
TH1 ROB: 96 LSQ: 70 IQ: 13, IPC: 0.7744
TH2 ROB: 21 LSQ: 8 IQ: 7, IPC: 0.6314
TH3 ROB: 36 LSQ: 21 IQ: 32, IPC: 0.6942
EPOCH ENDS
EPOCH STARTS
TH0 ROB: 15 LSQ: 8 IQ: 11 IPC: 0.6340
TH1 ROB: 96 LSQ: 70 IQ: 24, IPC: 0.7744
TH2 ROB: 56 LSQ: 12 IQ: 50, IPC: 0.6314
TH3 ROB: 15 LSQ: 6 IQ: 11, IPC: 0.6942
EPOCH ENDS
EPOCH STARTS
TH0 ROB: 12 LSQ: 3 IQ: 8 IPC: 0.6340
TH1 ROB: 80 LSQ: 57 IQ: 31, IPC: 0.7744
TH2 ROB: 26 LSQ: 8 IQ: 21, IPC: 0.6315
TH3 ROB: 25 LSQ: 7 IQ: 20, IPC: 0.6940
EPOCH ENDS
EPOCH STARTS
TH0 ROB: 14 LSQ: 5 IQ: 8 IPC: 0.6340
TH1 ROB: 99 LSQ: 70 IQ: 35, IPC: 0.7745
TH2 ROB: 50 LSQ: 21 IQ: 46, IPC: 0.6313
TH3 ROB: 16 LSQ: 6 IQ: 7, IPC: 0.6940
EPOCH ENDS
EPOCH STARTS
TH0 ROB: 20 LSQ: 5 IQ: 16 IPC: 0.6340
TH1 ROB: 92 LSQ: 66 IQ: 28, IPC: 0.7745
TH2 ROB: 38 LSQ: 8 IQ: 32, IPC: 0.6314
TH3 ROB: 27 LSQ: 10 IQ: 20, IPC: 0.6938
EPOCH ENDS
EPOCH STARTS
TH0 ROB: 20 LSQ: 5 IQ: 16 IPC: 0.6340
TH1 ROB: 125 LSQ: 90 IQ: 10, IPC: 0.7744
TH2 ROB: 1 LSQ: 0 IQ: 0, IPC: 0.6315
TH3 ROB: 59 LSQ: 24 IQ: 41, IPC: 0.6938
EPOCH ENDS
EPOCH STARTS
TH0 ROB: 15 LSQ: 4 IQ: 11 IPC: 0.6340
TH1 ROB: 75 LSQ: 55 IQ: 23, IPC: 0.7743
TH2 ROB: 30 LSQ: 15 IQ: 28, IPC: 0.6315
TH3 ROB: 24 LSQ: 10 IQ: 20, IPC: 0.6938
EPOCH ENDS
EPOCH STARTS
TH0 ROB: 10 LSQ: 7 IQ: 9 IPC: 0.6341
TH1 ROB: 109 LSQ: 78 IQ: 30, IPC: 0.7743
TH2 ROB: 32 LSQ: 10 IQ: 30, IPC: 0.6315
TH3 ROB: 56 LSQ: 16 IQ: 15, IPC: 0.6937
EPOCH ENDS
EPOCH STARTS
TH0 ROB: 14 LSQ: 5 IQ: 10 IPC: 0.6342
TH1 ROB: 88 LSQ: 62 IQ: 12, IPC: 0.7743
TH2 ROB: 22 LSQ: 6 IQ: 16, IPC: 0.6316
TH3 ROB: 63 LSQ: 26 IQ: 58, IPC: 0.6935
EPOCH ENDS
EPOCH STARTS
TH0 ROB: 27 LSQ: 8 IQ: 25 IPC: 0.6340
TH1 ROB: 99 LSQ: 71 IQ: 25, IPC: 0.7743
TH2 ROB: 4 LSQ: 2 IQ: 0, IPC: 0.6313
TH3 ROB: 33 LSQ: 19 IQ: 26, IPC: 0.6938
EPOCH ENDS
EPOCH STARTS
TH0 ROB: 22 LSQ: 1 IQ: 17 IPC: 0.6340
TH1 ROB: 91 LSQ: 65 IQ: 11, IPC: 0.7742
TH2 ROB: 22 LSQ: 7 IQ: 21, IPC: 0.6312
TH3 ROB: 22 LSQ: 10 IQ: 22, IPC: 0.6940
EPOCH ENDS
EPOCH STARTS
TH0 ROB: 29 LSQ: 9 IQ: 25 IPC: 0.6339
TH1 ROB: 38 LSQ: 27 IQ: 2, IPC: 0.7741
TH2 ROB: 39 LSQ: 15 IQ: 39, IPC: 0.6312
TH3 ROB: 104 LSQ: 39 IQ: 30, IPC: 0.6941
EPOCH ENDS
EPOCH STARTS
TH0 ROB: 29 LSQ: 9 IQ: 20 IPC: 0.6338
TH1 ROB: 73 LSQ: 53 IQ: 36, IPC: 0.7740
TH2 ROB: 5 LSQ: 2 IQ: 4, IPC: 0.6310
TH3 ROB: 54 LSQ: 15 IQ: 31, IPC: 0.6944
EPOCH ENDS
EPOCH STARTS
TH0 ROB: 29 LSQ: 3 IQ: 23 IPC: 0.6336
TH1 ROB: 66 LSQ: 48 IQ: 20, IPC: 0.7741
TH2 ROB: 22 LSQ: 7 IQ: 21, IPC: 0.6310
TH3 ROB: 24 LSQ: 6 IQ: 22, IPC: 0.6944
EPOCH ENDS
EPOCH STARTS
TH0 ROB: 36 LSQ: 6 IQ: 36 IPC: 0.6338
TH1 ROB: 142 LSQ: 103 IQ: 34, IPC: 0.7743
TH2 ROB: 31 LSQ: 13 IQ: 22, IPC: 0.6312
TH3 ROB: 0 LSQ: 0 IQ: 0, IPC: 0.6933
EPOCH ENDS
EPOCH STARTS
TH0 ROB: 32 LSQ: 12 IQ: 30 IPC: 0.6345
TH1 ROB: 127 LSQ: 91 IQ: 26, IPC: 0.7751
TH2 ROB: 21 LSQ: 7 IQ: 11, IPC: 0.6317
TH3 ROB: 32 LSQ: 0 IQ: 29, IPC: 0.6904
EPOCH ENDS
EPOCH STARTS
TH0 ROB: 34 LSQ: 11 IQ: 30 IPC: 0.6351
TH1 ROB: 158 LSQ: 114 IQ: 32, IPC: 0.7759
TH2 ROB: 42 LSQ: 13 IQ: 34, IPC: 0.6323
TH3 ROB: 0 LSQ: 0 IQ: 0, IPC: 0.6878
EPOCH ENDS
EPOCH STARTS
TH0 ROB: 21 LSQ: 4 IQ: 17 IPC: 0.6357
TH1 ROB: 80 LSQ: 57 IQ: 30, IPC: 0.7765
TH2 ROB: 31 LSQ: 6 IQ: 22, IPC: 0.6328
TH3 ROB: 47 LSQ: 24 IQ: 27, IPC: 0.6855
EPOCH ENDS
EPOCH STARTS
TH0 ROB: 16 LSQ: 7 IQ: 12 IPC: 0.6364
TH1 ROB: 93 LSQ: 67 IQ: 25, IPC: 0.7773
TH2 ROB: 34 LSQ: 6 IQ: 30, IPC: 0.6332
TH3 ROB: 30 LSQ: 10 IQ: 29, IPC: 0.6830
EPOCH ENDS
EPOCH STARTS
TH0 ROB: 28 LSQ: 18 IQ: 24 IPC: 0.6365
TH1 ROB: 123 LSQ: 87 IQ: 28, IPC: 0.7774
TH2 ROB: 31 LSQ: 6 IQ: 27, IPC: 0.6333
TH3 ROB: 0 LSQ: 0 IQ: 0, IPC: 0.6828
EPOCH ENDS
EPOCH STARTS
TH0 ROB: 33 LSQ: 10 IQ: 25 IPC: 0.6365
TH1 ROB: 98 LSQ: 71 IQ: 20, IPC: 0.7774
TH2 ROB: 18 LSQ: 7 IQ: 14, IPC: 0.6333
TH3 ROB: 45 LSQ: 15 IQ: 37, IPC: 0.6826
EPOCH ENDS
EPOCH STARTS
TH0 ROB: 25 LSQ: 4 IQ: 19 IPC: 0.6367
TH1 ROB: 98 LSQ: 71 IQ: 31, IPC: 0.7777
TH2 ROB: 31 LSQ: 14 IQ: 31, IPC: 0.6335
TH3 ROB: 11 LSQ: 2 IQ: 7, IPC: 0.6819
EPOCH ENDS
EPOCH STARTS
TH0 ROB: 22 LSQ: 4 IQ: 18 IPC: 0.6370
TH1 ROB: 96 LSQ: 70 IQ: 28, IPC: 0.7779
TH2 ROB: 30 LSQ: 6 IQ: 22, IPC: 0.6338
TH3 ROB: 32 LSQ: 1 IQ: 28, IPC: 0.6813
EPOCH ENDS
EPOCH STARTS
TH0 ROB: 31 LSQ: 12 IQ: 26 IPC: 0.6374
TH1 ROB: 124 LSQ: 89 IQ: 25, IPC: 0.7781
TH2 ROB: 40 LSQ: 17 IQ: 33, IPC: 0.6340
TH3 ROB: 17 LSQ: 7 IQ: 12, IPC: 0.6807
EPOCH ENDS
EPOCH STARTS
TH0 ROB: 12 LSQ: 4 IQ: 8 IPC: 0.6377
TH1 ROB: 91 LSQ: 65 IQ: 24, IPC: 0.7784
TH2 ROB: 33 LSQ: 9 IQ: 24, IPC: 0.6343
TH3 ROB: 59 LSQ: 8 IQ: 40, IPC: 0.6802
EPOCH ENDS
EPOCH STARTS
TH0 ROB: 42 LSQ: 16 IQ: 36 IPC: 0.6381
TH1 ROB: 70 LSQ: 52 IQ: 10, IPC: 0.7786
TH2 ROB: 35 LSQ: 8 IQ: 31, IPC: 0.6345
TH3 ROB: 27 LSQ: 9 IQ: 19, IPC: 0.6796
EPOCH ENDS
EPOCH STARTS
TH0 ROB: 30 LSQ: 15 IQ: 22 IPC: 0.6385
TH1 ROB: 130 LSQ: 93 IQ: 49, IPC: 0.7789
TH2 ROB: 28 LSQ: 7 IQ: 24, IPC: 0.6348
TH3 ROB: 8 LSQ: 2 IQ: 1, IPC: 0.6786
EPOCH ENDS
EPOCH STARTS
TH0 ROB: 42 LSQ: 18 IQ: 38 IPC: 0.6389
TH1 ROB: 85 LSQ: 60 IQ: 3, IPC: 0.7794
TH2 ROB: 23 LSQ: 8 IQ: 19, IPC: 0.6349
TH3 ROB: 45 LSQ: 26 IQ: 36, IPC: 0.6769
EPOCH ENDS
EPOCH STARTS
TH0 ROB: 22 LSQ: 13 IQ: 18 IPC: 0.6388
TH1 ROB: 139 LSQ: 100 IQ: 24, IPC: 0.7792
TH2 ROB: 28 LSQ: 5 IQ: 17, IPC: 0.6349
TH3 ROB: 35 LSQ: 11 IQ: 33, IPC: 0.6771
EPOCH ENDS
EPOCH STARTS
TH0 ROB: 19 LSQ: 5 IQ: 16 IPC: 0.6388
TH1 ROB: 96 LSQ: 70 IQ: 21, IPC: 0.7793
TH2 ROB: 21 LSQ: 4 IQ: 19, IPC: 0.6348
TH3 ROB: 95 LSQ: 34 IQ: 32, IPC: 0.6769
EPOCH ENDS
EPOCH STARTS
TH0 ROB: 32 LSQ: 16 IQ: 24 IPC: 0.6388
TH1 ROB: 73 LSQ: 53 IQ: 16, IPC: 0.7792
TH2 ROB: 26 LSQ: 9 IQ: 22, IPC: 0.6348
TH3 ROB: 72 LSQ: 28 IQ: 34, IPC: 0.6769
EPOCH ENDS
EPOCH STARTS
TH0 ROB: 35 LSQ: 13 IQ: 31 IPC: 0.6388
TH1 ROB: 105 LSQ: 76 IQ: 21, IPC: 0.7791
TH2 ROB: 28 LSQ: 9 IQ: 21, IPC: 0.6348
TH3 ROB: 27 LSQ: 10 IQ: 23, IPC: 0.6767
EPOCH ENDS
EPOCH STARTS
TH0 ROB: 9 LSQ: 5 IQ: 1 IPC: 0.6389
TH1 ROB: 142 LSQ: 103 IQ: 72, IPC: 0.7792
TH2 ROB: 15 LSQ: 4 IQ: 11, IPC: 0.6349
TH3 ROB: 16 LSQ: 6 IQ: 12, IPC: 0.6761
EPOCH ENDS
EPOCH STARTS
TH0 ROB: 25 LSQ: 11 IQ: 21 IPC: 0.6390
TH1 ROB: 155 LSQ: 111 IQ: 47, IPC: 0.7792
TH2 ROB: 32 LSQ: 6 IQ: 28, IPC: 0.6348
TH3 ROB: 25 LSQ: 10 IQ: 0, IPC: 0.6760
EPOCH ENDS
EPOCH STARTS
TH0 ROB: 7 LSQ: 6 IQ: 3 IPC: 0.6390
TH1 ROB: 117 LSQ: 85 IQ: 59, IPC: 0.7792
TH2 ROB: 25 LSQ: 10 IQ: 15, IPC: 0.6348
TH3 ROB: 23 LSQ: 6 IQ: 19, IPC: 0.6758
EPOCH ENDS
EPOCH STARTS
TH0 ROB: 28 LSQ: 10 IQ: 26 IPC: 0.6390
TH1 ROB: 96 LSQ: 68 IQ: 24, IPC: 0.7791
TH2 ROB: 27 LSQ: 13 IQ: 26, IPC: 0.6349
TH3 ROB: 25 LSQ: 9 IQ: 20, IPC: 0.6757
EPOCH ENDS
EPOCH STARTS
TH0 ROB: 21 LSQ: 9 IQ: 13 IPC: 0.6391
TH1 ROB: 116 LSQ: 85 IQ: 29, IPC: 0.7791
TH2 ROB: 33 LSQ: 9 IQ: 24, IPC: 0.6349
TH3 ROB: 34 LSQ: 11 IQ: 30, IPC: 0.6755
EPOCH ENDS
EPOCH STARTS
TH0 ROB: 36 LSQ: 15 IQ: 34 IPC: 0.6390
TH1 ROB: 101 LSQ: 74 IQ: 29, IPC: 0.7792
TH2 ROB: 32 LSQ: 11 IQ: 23, IPC: 0.6349
TH3 ROB: 10 LSQ: 3 IQ: 10, IPC: 0.6755
EPOCH ENDS
EPOCH STARTS
TH0 ROB: 23 LSQ: 9 IQ: 14 IPC: 0.6390
TH1 ROB: 102 LSQ: 74 IQ: 36, IPC: 0.7792
TH2 ROB: 18 LSQ: 4 IQ: 14, IPC: 0.6349
TH3 ROB: 63 LSQ: 22 IQ: 32, IPC: 0.6752
EPOCH ENDS
EPOCH STARTS
TH0 ROB: 31 LSQ: 8 IQ: 26 IPC: 0.6390
TH1 ROB: 111 LSQ: 80 IQ: 18, IPC: 0.7792
TH2 ROB: 25 LSQ: 7 IQ: 18, IPC: 0.6349
TH3 ROB: 37 LSQ: 14 IQ: 34, IPC: 0.6749
EPOCH ENDS
EPOCH STARTS
TH0 ROB: 18 LSQ: 8 IQ: 14 IPC: 0.6391
TH1 ROB: 110 LSQ: 79 IQ: 22, IPC: 0.7792
TH2 ROB: 29 LSQ: 9 IQ: 25, IPC: 0.6351
TH3 ROB: 35 LSQ: 12 IQ: 35, IPC: 0.6745
EPOCH ENDS
EPOCH STARTS
TH0 ROB: 22 LSQ: 5 IQ: 14 IPC: 0.6391
TH1 ROB: 99 LSQ: 72 IQ: 26, IPC: 0.7792
TH2 ROB: 23 LSQ: 8 IQ: 21, IPC: 0.6350
TH3 ROB: 11 LSQ: 4 IQ: 7, IPC: 0.6745
EPOCH ENDS
EPOCH STARTS
TH0 ROB: 19 LSQ: 3 IQ: 15 IPC: 0.6391
TH1 ROB: 127 LSQ: 90 IQ: 25, IPC: 0.7791
TH2 ROB: 36 LSQ: 18 IQ: 29, IPC: 0.6351
TH3 ROB: 39 LSQ: 14 IQ: 27, IPC: 0.6743
EPOCH ENDS
EPOCH STARTS
TH0 ROB: 12 LSQ: 3 IQ: 8 IPC: 0.6392
TH1 ROB: 94 LSQ: 68 IQ: 23, IPC: 0.7791
TH2 ROB: 32 LSQ: 8 IQ: 29, IPC: 0.6350
TH3 ROB: 25 LSQ: 10 IQ: 23, IPC: 0.6743
EPOCH ENDS
EPOCH STARTS
TH0 ROB: 21 LSQ: 9 IQ: 14 IPC: 0.6392
TH1 ROB: 107 LSQ: 77 IQ: 31, IPC: 0.7792
TH2 ROB: 26 LSQ: 5 IQ: 22, IPC: 0.6351
TH3 ROB: 33 LSQ: 11 IQ: 29, IPC: 0.6739
EPOCH ENDS
EPOCH STARTS
TH0 ROB: 43 LSQ: 18 IQ: 39 IPC: 0.6393
TH1 ROB: 83 LSQ: 61 IQ: 14, IPC: 0.7792
TH2 ROB: 7 LSQ: 2 IQ: 0, IPC: 0.6351
TH3 ROB: 47 LSQ: 16 IQ: 43, IPC: 0.6739
EPOCH ENDS
EPOCH STARTS
TH0 ROB: 26 LSQ: 9 IQ: 22 IPC: 0.6393
TH1 ROB: 123 LSQ: 89 IQ: 24, IPC: 0.7792
TH2 ROB: 24 LSQ: 9 IQ: 19, IPC: 0.6352
TH3 ROB: 55 LSQ: 20 IQ: 31, IPC: 0.6735
EPOCH ENDS
EPOCH STARTS
TH0 ROB: 10 LSQ: 4 IQ: 6 IPC: 0.6394
TH1 ROB: 90 LSQ: 66 IQ: 20, IPC: 0.7792
TH2 ROB: 34 LSQ: 14 IQ: 14, IPC: 0.6352
TH3 ROB: 60 LSQ: 10 IQ: 56, IPC: 0.6734
EPOCH ENDS
EPOCH STARTS
TH0 ROB: 22 LSQ: 8 IQ: 18 IPC: 0.6395
TH1 ROB: 94 LSQ: 67 IQ: 25, IPC: 0.7793
TH2 ROB: 38 LSQ: 11 IQ: 33, IPC: 0.6353
TH3 ROB: 24 LSQ: 7 IQ: 20, IPC: 0.6729
EPOCH ENDS
EPOCH STARTS
TH0 ROB: 13 LSQ: 3 IQ: 9 IPC: 0.6395
TH1 ROB: 115 LSQ: 84 IQ: 16, IPC: 0.7793
TH2 ROB: 50 LSQ: 20 IQ: 47, IPC: 0.6354
TH3 ROB: 21 LSQ: 6 IQ: 18, IPC: 0.6725
EPOCH ENDS
EPOCH STARTS
TH0 ROB: 17 LSQ: 8 IQ: 11 IPC: 0.6396
TH1 ROB: 112 LSQ: 81 IQ: 29, IPC: 0.7794
TH2 ROB: 37 LSQ: 6 IQ: 30, IPC: 0.6355
TH3 ROB: 32 LSQ: 11 IQ: 26, IPC: 0.6721
EPOCH ENDS
EPOCH STARTS
TH0 ROB: 30 LSQ: 13 IQ: 24 IPC: 0.6397
TH1 ROB: 92 LSQ: 66 IQ: 24, IPC: 0.7794
TH2 ROB: 36 LSQ: 13 IQ: 32, IPC: 0.6356
TH3 ROB: 20 LSQ: 7 IQ: 16, IPC: 0.6718
EPOCH ENDS
EPOCH STARTS
TH0 ROB: 18 LSQ: 10 IQ: 15 IPC: 0.6398
TH1 ROB: 110 LSQ: 79 IQ: 20, IPC: 0.7794
TH2 ROB: 32 LSQ: 8 IQ: 32, IPC: 0.6356
TH3 ROB: 27 LSQ: 12 IQ: 24, IPC: 0.6715
EPOCH ENDS
EPOCH STARTS
TH0 ROB: 18 LSQ: 4 IQ: 14 IPC: 0.6399
TH1 ROB: 104 LSQ: 76 IQ: 24, IPC: 0.7794
TH2 ROB: 30 LSQ: 7 IQ: 22, IPC: 0.6357
TH3 ROB: 71 LSQ: 25 IQ: 36, IPC: 0.6711
EPOCH ENDS
EPOCH STARTS
TH0 ROB: 40 LSQ: 16 IQ: 38 IPC: 0.6400
TH1 ROB: 103 LSQ: 75 IQ: 12, IPC: 0.7795
TH2 ROB: 15 LSQ: 5 IQ: 8, IPC: 0.6357
TH3 ROB: 40 LSQ: 14 IQ: 38, IPC: 0.6707
EPOCH ENDS
EPOCH STARTS
TH0 ROB: 25 LSQ: 8 IQ: 21 IPC: 0.6401
TH1 ROB: 60 LSQ: 43 IQ: 24, IPC: 0.7795
TH2 ROB: 19 LSQ: 6 IQ: 15, IPC: 0.6357
TH3 ROB: 47 LSQ: 17 IQ: 36, IPC: 0.6704
EPOCH ENDS
EPOCH STARTS
TH0 ROB: 8 LSQ: 6 IQ: 4 IPC: 0.6402
TH1 ROB: 178 LSQ: 128 IQ: 50, IPC: 0.7796
TH2 ROB: 25 LSQ: 10 IQ: 22, IPC: 0.6358
TH3 ROB: 24 LSQ: 8 IQ: 20, IPC: 0.6701
EPOCH ENDS
EPOCH STARTS
TH0 ROB: 34 LSQ: 6 IQ: 30 IPC: 0.6402
TH1 ROB: 90 LSQ: 64 IQ: 21, IPC: 0.7797
TH2 ROB: 22 LSQ: 8 IQ: 16, IPC: 0.6358
TH3 ROB: 35 LSQ: 14 IQ: 29, IPC: 0.6697
EPOCH ENDS
EPOCH STARTS
TH0 ROB: 36 LSQ: 16 IQ: 33 IPC: 0.6403
TH1 ROB: 85 LSQ: 61 IQ: 31, IPC: 0.7797
TH2 ROB: 31 LSQ: 14 IQ: 26, IPC: 0.6358
TH3 ROB: 12 LSQ: 5 IQ: 6, IPC: 0.6694
EPOCH ENDS
EPOCH STARTS
TH0 ROB: 42 LSQ: 18 IQ: 42 IPC: 0.6404
TH1 ROB: 110 LSQ: 79 IQ: 19, IPC: 0.7798
TH2 ROB: 26 LSQ: 9 IQ: 22, IPC: 0.6359
TH3 ROB: 22 LSQ: 6 IQ: 13, IPC: 0.6690
EPOCH ENDS
EPOCH STARTS
TH0 ROB: 27 LSQ: 10 IQ: 27 IPC: 0.6404
TH1 ROB: 112 LSQ: 81 IQ: 15, IPC: 0.7798
TH2 ROB: 24 LSQ: 7 IQ: 20, IPC: 0.6359
TH3 ROB: 30 LSQ: 5 IQ: 30, IPC: 0.6689
EPOCH ENDS
EPOCH STARTS
TH0 ROB: 32 LSQ: 9 IQ: 28 IPC: 0.6406
TH1 ROB: 74 LSQ: 54 IQ: 38, IPC: 0.7798
TH2 ROB: 32 LSQ: 7 IQ: 23, IPC: 0.6359
TH3 ROB: 13 LSQ: 5 IQ: 7, IPC: 0.6686
EPOCH ENDS
EPOCH STARTS
TH0 ROB: 37 LSQ: 13 IQ: 33 IPC: 0.6406
TH1 ROB: 66 LSQ: 48 IQ: 5, IPC: 0.7799
TH2 ROB: 17 LSQ: 8 IQ: 12, IPC: 0.6360
TH3 ROB: 49 LSQ: 8 IQ: 46, IPC: 0.6683
EPOCH ENDS
EPOCH STARTS
TH0 ROB: 5 LSQ: 4 IQ: 5 IPC: 0.6407
TH1 ROB: 105 LSQ: 76 IQ: 29, IPC: 0.7800
TH2 ROB: 27 LSQ: 13 IQ: 20, IPC: 0.6361
TH3 ROB: 0 LSQ: 0 IQ: 0, IPC: 0.6678
EPOCH ENDS
EPOCH STARTS
TH0 ROB: 32 LSQ: 9 IQ: 24 IPC: 0.6407
TH1 ROB: 117 LSQ: 85 IQ: 30, IPC: 0.7800
TH2 ROB: 19 LSQ: 5 IQ: 15, IPC: 0.6361
TH3 ROB: 33 LSQ: 11 IQ: 27, IPC: 0.6676
EPOCH ENDS
EPOCH STARTS
TH0 ROB: 24 LSQ: 4 IQ: 24 IPC: 0.6408
TH1 ROB: 117 LSQ: 83 IQ: 8, IPC: 0.7801
TH2 ROB: 20 LSQ: 6 IQ: 19, IPC: 0.6362
TH3 ROB: 23 LSQ: 8 IQ: 22, IPC: 0.6672
EPOCH ENDS
EPOCH STARTS
TH0 ROB: 24 LSQ: 4 IQ: 24 IPC: 0.6408
TH1 ROB: 75 LSQ: 55 IQ: 24, IPC: 0.7801
TH2 ROB: 22 LSQ: 7 IQ: 17, IPC: 0.6362
TH3 ROB: 20 LSQ: 7 IQ: 12, IPC: 0.6669
EPOCH ENDS
EPOCH STARTS
TH0 ROB: 28 LSQ: 8 IQ: 20 IPC: 0.6408
TH1 ROB: 61 LSQ: 44 IQ: 20, IPC: 0.7801
TH2 ROB: 30 LSQ: 6 IQ: 26, IPC: 0.6362
TH3 ROB: 48 LSQ: 18 IQ: 30, IPC: 0.6665
EPOCH ENDS
EPOCH STARTS
TH0 ROB: 30 LSQ: 9 IQ: 24 IPC: 0.6408
TH1 ROB: 137 LSQ: 98 IQ: 34, IPC: 0.7801
TH2 ROB: 28 LSQ: 13 IQ: 24, IPC: 0.6362
TH3 ROB: 20 LSQ: 6 IQ: 14, IPC: 0.6662
EPOCH ENDS
EPOCH STARTS
TH0 ROB: 31 LSQ: 4 IQ: 27 IPC: 0.6408
TH1 ROB: 117 LSQ: 85 IQ: 33, IPC: 0.7801
TH2 ROB: 21 LSQ: 4 IQ: 17, IPC: 0.6363
TH3 ROB: 29 LSQ: 10 IQ: 19, IPC: 0.6658
EPOCH ENDS
EPOCH STARTS
TH0 ROB: 26 LSQ: 9 IQ: 22 IPC: 0.6408
TH1 ROB: 74 LSQ: 54 IQ: 20, IPC: 0.7802
TH2 ROB: 36 LSQ: 9 IQ: 31, IPC: 0.6363
TH3 ROB: 55 LSQ: 20 IQ: 23, IPC: 0.6655
EPOCH ENDS
EPOCH STARTS
TH0 ROB: 29 LSQ: 9 IQ: 23 IPC: 0.6409
TH1 ROB: 91 LSQ: 65 IQ: 20, IPC: 0.7801
TH2 ROB: 22 LSQ: 12 IQ: 18, IPC: 0.6364
TH3 ROB: 35 LSQ: 12 IQ: 35, IPC: 0.6653
EPOCH ENDS
EPOCH STARTS
TH0 ROB: 26 LSQ: 4 IQ: 18 IPC: 0.6408
TH1 ROB: 69 LSQ: 51 IQ: 24, IPC: 0.7802
TH2 ROB: 28 LSQ: 10 IQ: 24, IPC: 0.6365
TH3 ROB: 36 LSQ: 14 IQ: 30, IPC: 0.6649
EPOCH ENDS
EPOCH STARTS
TH0 ROB: 13 LSQ: 3 IQ: 9 IPC: 0.6409
TH1 ROB: 79 LSQ: 57 IQ: 31, IPC: 0.7801
TH2 ROB: 34 LSQ: 7 IQ: 25, IPC: 0.6365
TH3 ROB: 34 LSQ: 6 IQ: 31, IPC: 0.6646
EPOCH ENDS
EPOCH STARTS
TH0 ROB: 18 LSQ: 4 IQ: 18 IPC: 0.6410
TH1 ROB: 103 LSQ: 75 IQ: 17, IPC: 0.7801
TH2 ROB: 25 LSQ: 12 IQ: 24, IPC: 0.6366
TH3 ROB: 96 LSQ: 34 IQ: 18, IPC: 0.6643
EPOCH ENDS
EPOCH STARTS
TH0 ROB: 30 LSQ: 4 IQ: 30 IPC: 0.6410
TH1 ROB: 88 LSQ: 62 IQ: 27, IPC: 0.7801
TH2 ROB: 25 LSQ: 9 IQ: 23, IPC: 0.6366
TH3 ROB: 24 LSQ: 4 IQ: 14, IPC: 0.6640
EPOCH ENDS
EPOCH STARTS
TH0 ROB: 19 LSQ: 4 IQ: 15 IPC: 0.6411
TH1 ROB: 124 LSQ: 89 IQ: 26, IPC: 0.7801
TH2 ROB: 33 LSQ: 6 IQ: 33, IPC: 0.6366
TH3 ROB: 20 LSQ: 6 IQ: 14, IPC: 0.6639
EPOCH ENDS
EPOCH STARTS
TH0 ROB: 41 LSQ: 7 IQ: 36 IPC: 0.6410
TH1 ROB: 102 LSQ: 74 IQ: 15, IPC: 0.7802
TH2 ROB: 37 LSQ: 11 IQ: 32, IPC: 0.6367
TH3 ROB: 0 LSQ: 0 IQ: 0, IPC: 0.6636
EPOCH ENDS
EPOCH STARTS
TH0 ROB: 25 LSQ: 9 IQ: 22 IPC: 0.6411
TH1 ROB: 103 LSQ: 75 IQ: 24, IPC: 0.7802
TH2 ROB: 20 LSQ: 10 IQ: 16, IPC: 0.6367
TH3 ROB: 26 LSQ: 10 IQ: 23, IPC: 0.6634
EPOCH ENDS
EPOCH STARTS
TH0 ROB: 21 LSQ: 9 IQ: 21 IPC: 0.6412
TH1 ROB: 84 LSQ: 60 IQ: 19, IPC: 0.7802
TH2 ROB: 44 LSQ: 10 IQ: 11, IPC: 0.6367
TH3 ROB: 12 LSQ: 4 IQ: 12, IPC: 0.6630
EPOCH ENDS
EPOCH STARTS
TH0 ROB: 29 LSQ: 8 IQ: 25 IPC: 0.6413
TH1 ROB: 79 LSQ: 59 IQ: 12, IPC: 0.7802
TH2 ROB: 26 LSQ: 13 IQ: 22, IPC: 0.6368
TH3 ROB: 37 LSQ: 14 IQ: 37, IPC: 0.6629
EPOCH ENDS
EPOCH STARTS
TH0 ROB: 35 LSQ: 13 IQ: 33 IPC: 0.6414
TH1 ROB: 96 LSQ: 70 IQ: 21, IPC: 0.7802
TH2 ROB: 26 LSQ: 8 IQ: 20, IPC: 0.6369
TH3 ROB: 28 LSQ: 11 IQ: 22, IPC: 0.6625
EPOCH ENDS
EPOCH STARTS
TH0 ROB: 17 LSQ: 8 IQ: 5 IPC: 0.6415
TH1 ROB: 93 LSQ: 67 IQ: 35, IPC: 0.7802
TH2 ROB: 31 LSQ: 13 IQ: 31, IPC: 0.6370
TH3 ROB: 31 LSQ: 11 IQ: 25, IPC: 0.6623
EPOCH ENDS
EPOCH STARTS
TH0 ROB: 7 LSQ: 4 IQ: 3 IPC: 0.6415
TH1 ROB: 72 LSQ: 52 IQ: 25, IPC: 0.7802
TH2 ROB: 56 LSQ: 12 IQ: 48, IPC: 0.6370
TH3 ROB: 23 LSQ: 9 IQ: 20, IPC: 0.6621
EPOCH ENDS
EPOCH STARTS
TH0 ROB: 20 LSQ: 8 IQ: 15 IPC: 0.6416
TH1 ROB: 94 LSQ: 68 IQ: 35, IPC: 0.7802
TH2 ROB: 27 LSQ: 13 IQ: 22, IPC: 0.6370
TH3 ROB: 29 LSQ: 10 IQ: 24, IPC: 0.6619
EPOCH ENDS
EPOCH STARTS
TH0 ROB: 31 LSQ: 16 IQ: 26 IPC: 0.6416
TH1 ROB: 78 LSQ: 56 IQ: 17, IPC: 0.7802
TH2 ROB: 25 LSQ: 6 IQ: 21, IPC: 0.6371
TH3 ROB: 36 LSQ: 13 IQ: 32, IPC: 0.6617
EPOCH ENDS
EPOCH STARTS
TH0 ROB: 41 LSQ: 13 IQ: 37 IPC: 0.6416
TH1 ROB: 75 LSQ: 55 IQ: 16, IPC: 0.7802
TH2 ROB: 20 LSQ: 6 IQ: 10, IPC: 0.6371
TH3 ROB: 66 LSQ: 25 IQ: 17, IPC: 0.6615
EPOCH ENDS
EPOCH STARTS
TH0 ROB: 20 LSQ: 12 IQ: 20 IPC: 0.6416
TH1 ROB: 113 LSQ: 81 IQ: 8, IPC: 0.7802
TH2 ROB: 15 LSQ: 5 IQ: 13, IPC: 0.6372
TH3 ROB: 19 LSQ: 7 IQ: 19, IPC: 0.6611
EPOCH ENDS
EPOCH STARTS
TH0 ROB: 31 LSQ: 8 IQ: 23 IPC: 0.6417
TH1 ROB: 91 LSQ: 65 IQ: 15, IPC: 0.7803
TH2 ROB: 41 LSQ: 16 IQ: 32, IPC: 0.6372
TH3 ROB: 34 LSQ: 6 IQ: 26, IPC: 0.6609
EPOCH ENDS
EPOCH STARTS
TH0 ROB: 16 LSQ: 1 IQ: 10 IPC: 0.6418
TH1 ROB: 143 LSQ: 103 IQ: 26, IPC: 0.7803
TH2 ROB: 33 LSQ: 10 IQ: 29, IPC: 0.6373
TH3 ROB: 37 LSQ: 14 IQ: 31, IPC: 0.6605
EPOCH ENDS
EPOCH STARTS
TH0 ROB: 31 LSQ: 15 IQ: 23 IPC: 0.6419
TH1 ROB: 114 LSQ: 83 IQ: 31, IPC: 0.7804
TH2 ROB: 21 LSQ: 6 IQ: 17, IPC: 0.6373
TH3 ROB: 55 LSQ: 20 IQ: 25, IPC: 0.6602
EPOCH ENDS
EPOCH STARTS
TH0 ROB: 17 LSQ: 8 IQ: 12 IPC: 0.6420
TH1 ROB: 106 LSQ: 76 IQ: 22, IPC: 0.7804
TH2 ROB: 26 LSQ: 6 IQ: 25, IPC: 0.6374
TH3 ROB: 44 LSQ: 16 IQ: 37, IPC: 0.6599
EPOCH ENDS
EPOCH STARTS
TH0 ROB: 33 LSQ: 12 IQ: 22 IPC: 0.6420
TH1 ROB: 108 LSQ: 77 IQ: 7, IPC: 0.7804
TH2 ROB: 41 LSQ: 14 IQ: 37, IPC: 0.6374
TH3 ROB: 34 LSQ: 13 IQ: 30, IPC: 0.6596
EPOCH ENDS
EPOCH STARTS
TH0 ROB: 24 LSQ: 6 IQ: 20 IPC: 0.6421
TH1 ROB: 110 LSQ: 79 IQ: 39, IPC: 0.7805
TH2 ROB: 24 LSQ: 12 IQ: 17, IPC: 0.6374
TH3 ROB: 27 LSQ: 11 IQ: 20, IPC: 0.6594
EPOCH ENDS
EPOCH STARTS
TH0 ROB: 28 LSQ: 7 IQ: 24 IPC: 0.6422
TH1 ROB: 103 LSQ: 76 IQ: 34, IPC: 0.7805
TH2 ROB: 22 LSQ: 11 IQ: 13, IPC: 0.6375
TH3 ROB: 31 LSQ: 10 IQ: 25, IPC: 0.6591
EPOCH ENDS
EPOCH STARTS
TH0 ROB: 28 LSQ: 2 IQ: 20 IPC: 0.6423
TH1 ROB: 101 LSQ: 74 IQ: 28, IPC: 0.7805
TH2 ROB: 21 LSQ: 7 IQ: 17, IPC: 0.6376
TH3 ROB: 36 LSQ: 13 IQ: 31, IPC: 0.6589
EPOCH ENDS
EPOCH STARTS
TH0 ROB: 28 LSQ: 10 IQ: 24 IPC: 0.6423
TH1 ROB: 98 LSQ: 71 IQ: 25, IPC: 0.7805
TH2 ROB: 35 LSQ: 7 IQ: 30, IPC: 0.6377
TH3 ROB: 24 LSQ: 9 IQ: 17, IPC: 0.6586
EPOCH ENDS
EPOCH STARTS
TH0 ROB: 4 LSQ: 3 IQ: 0 IPC: 0.6423
TH1 ROB: 174 LSQ: 124 IQ: 38, IPC: 0.7805
TH2 ROB: 32 LSQ: 8 IQ: 25, IPC: 0.6377
TH3 ROB: 22 LSQ: 8 IQ: 15, IPC: 0.6583
EPOCH ENDS
EPOCH STARTS
TH0 ROB: 32 LSQ: 15 IQ: 27 IPC: 0.6424
TH1 ROB: 101 LSQ: 74 IQ: 26, IPC: 0.7806
TH2 ROB: 15 LSQ: 2 IQ: 11, IPC: 0.6377
TH3 ROB: 36 LSQ: 14 IQ: 32, IPC: 0.6581
EPOCH ENDS
EPOCH STARTS
TH0 ROB: 25 LSQ: 10 IQ: 20 IPC: 0.6424
TH1 ROB: 94 LSQ: 68 IQ: 28, IPC: 0.7806
TH2 ROB: 30 LSQ: 7 IQ: 25, IPC: 0.6377
TH3 ROB: 0 LSQ: 0 IQ: 0, IPC: 0.6579
EPOCH ENDS
EPOCH STARTS
TH0 ROB: 37 LSQ: 6 IQ: 37 IPC: 0.6424
TH1 ROB: 108 LSQ: 77 IQ: 24, IPC: 0.7807
TH2 ROB: 26 LSQ: 12 IQ: 17, IPC: 0.6378
TH3 ROB: 1 LSQ: 0 IQ: 0, IPC: 0.6576
EPOCH ENDS
EPOCH STARTS
TH0 ROB: 20 LSQ: 5 IQ: 11 IPC: 0.6425
TH1 ROB: 123 LSQ: 87 IQ: 39, IPC: 0.7807
TH2 ROB: 29 LSQ: 8 IQ: 29, IPC: 0.6379
TH3 ROB: 31 LSQ: 5 IQ: 17, IPC: 0.6573
EPOCH ENDS
EPOCH STARTS
TH0 ROB: 34 LSQ: 11 IQ: 30 IPC: 0.6426
TH1 ROB: 97 LSQ: 70 IQ: 30, IPC: 0.7807
TH2 ROB: 29 LSQ: 5 IQ: 23, IPC: 0.6379
TH3 ROB: 19 LSQ: 7 IQ: 13, IPC: 0.6571
EPOCH ENDS
EPOCH STARTS
TH0 ROB: 25 LSQ: 9 IQ: 20 IPC: 0.6426
TH1 ROB: 68 LSQ: 49 IQ: 11, IPC: 0.7807
TH2 ROB: 39 LSQ: 9 IQ: 30, IPC: 0.6379
TH3 ROB: 62 LSQ: 23 IQ: 35, IPC: 0.6570
EPOCH ENDS
EPOCH STARTS
TH0 ROB: 40 LSQ: 16 IQ: 35 IPC: 0.6427
TH1 ROB: 132 LSQ: 95 IQ: 36, IPC: 0.7807
TH2 ROB: 31 LSQ: 17 IQ: 25, IPC: 0.6380
TH3 ROB: 4 LSQ: 2 IQ: 0, IPC: 0.6567
EPOCH ENDS
EPOCH STARTS
TH0 ROB: 45 LSQ: 13 IQ: 33 IPC: 0.6427
TH1 ROB: 120 LSQ: 87 IQ: 23, IPC: 0.7808
TH2 ROB: 28 LSQ: 16 IQ: 26, IPC: 0.6380
TH3 ROB: 12 LSQ: 3 IQ: 8, IPC: 0.6565
EPOCH ENDS
EPOCH STARTS
TH0 ROB: 32 LSQ: 12 IQ: 31 IPC: 0.6428
TH1 ROB: 102 LSQ: 74 IQ: 25, IPC: 0.7808
TH2 ROB: 15 LSQ: 8 IQ: 11, IPC: 0.6380
TH3 ROB: 36 LSQ: 12 IQ: 27, IPC: 0.6563
EPOCH ENDS
EPOCH STARTS
TH0 ROB: 10 LSQ: 1 IQ: 6 IPC: 0.6428
TH1 ROB: 94 LSQ: 68 IQ: 25, IPC: 0.7808
TH2 ROB: 38 LSQ: 18 IQ: 31, IPC: 0.6380
TH3 ROB: 38 LSQ: 14 IQ: 34, IPC: 0.6561
EPOCH ENDS
EPOCH STARTS
TH0 ROB: 28 LSQ: 13 IQ: 23 IPC: 0.6429
TH1 ROB: 112 LSQ: 80 IQ: 27, IPC: 0.7809
TH2 ROB: 3 LSQ: 2 IQ: 0, IPC: 0.6381
TH3 ROB: 31 LSQ: 10 IQ: 28, IPC: 0.6558
EPOCH ENDS
EPOCH STARTS
TH0 ROB: 34 LSQ: 11 IQ: 25 IPC: 0.6430
TH1 ROB: 93 LSQ: 67 IQ: 4, IPC: 0.7808
TH2 ROB: 46 LSQ: 11 IQ: 46, IPC: 0.6381
TH3 ROB: 49 LSQ: 19 IQ: 21, IPC: 0.6556
EPOCH ENDS
EPOCH STARTS
TH0 ROB: 15 LSQ: 4 IQ: 11 IPC: 0.6431
TH1 ROB: 91 LSQ: 65 IQ: 16, IPC: 0.7808
TH2 ROB: 50 LSQ: 16 IQ: 45, IPC: 0.6382
TH3 ROB: 32 LSQ: 12 IQ: 24, IPC: 0.6553
EPOCH ENDS
EPOCH STARTS
TH0 ROB: 72 LSQ: 41 IQ: 28 IPC: 0.6431
TH1 ROB: 116 LSQ: 85 IQ: 27, IPC: 0.7809
TH2 ROB: 19 LSQ: 7 IQ: 13, IPC: 0.6383
TH3 ROB: 33 LSQ: 12 IQ: 28, IPC: 0.6550
EPOCH ENDS
EPOCH STARTS
TH0 ROB: 20 LSQ: 9 IQ: 16 IPC: 0.6432
TH1 ROB: 92 LSQ: 66 IQ: 1, IPC: 0.7809
TH2 ROB: 37 LSQ: 14 IQ: 37, IPC: 0.6383
TH3 ROB: 68 LSQ: 31 IQ: 42, IPC: 0.6549
EPOCH ENDS
EPOCH STARTS
TH0 ROB: 26 LSQ: 8 IQ: 23 IPC: 0.6432
TH1 ROB: 132 LSQ: 95 IQ: 27, IPC: 0.7810
TH2 ROB: 27 LSQ: 8 IQ: 22, IPC: 0.6383
TH3 ROB: 25 LSQ: 11 IQ: 19, IPC: 0.6546
EPOCH ENDS
EPOCH STARTS
TH0 ROB: 4 LSQ: 3 IQ: 1 IPC: 0.6433
TH1 ROB: 69 LSQ: 51 IQ: 3, IPC: 0.7810
TH2 ROB: 12 LSQ: 2 IQ: 12, IPC: 0.6383
TH3 ROB: 126 LSQ: 25 IQ: 50, IPC: 0.6542
EPOCH ENDS
EPOCH STARTS
TH0 ROB: 28 LSQ: 13 IQ: 17 IPC: 0.6433
TH1 ROB: 84 LSQ: 60 IQ: 31, IPC: 0.7811
TH2 ROB: 32 LSQ: 13 IQ: 28, IPC: 0.6384
TH3 ROB: 24 LSQ: 6 IQ: 20, IPC: 0.6541
EPOCH ENDS
EPOCH STARTS
TH0 ROB: 24 LSQ: 4 IQ: 20 IPC: 0.6433
TH1 ROB: 88 LSQ: 62 IQ: 26, IPC: 0.7812
TH2 ROB: 29 LSQ: 9 IQ: 26, IPC: 0.6384
TH3 ROB: 41 LSQ: 13 IQ: 24, IPC: 0.6538
EPOCH ENDS
EPOCH STARTS
TH0 ROB: 38 LSQ: 7 IQ: 36 IPC: 0.6434
TH1 ROB: 84 LSQ: 61 IQ: 24, IPC: 0.7813
TH2 ROB: 16 LSQ: 5 IQ: 10, IPC: 0.6384
TH3 ROB: 30 LSQ: 10 IQ: 26, IPC: 0.6536
EPOCH ENDS
EPOCH STARTS
TH0 ROB: 15 LSQ: 7 IQ: 9 IPC: 0.6435
TH1 ROB: 138 LSQ: 99 IQ: 30, IPC: 0.7813
TH2 ROB: 32 LSQ: 8 IQ: 30, IPC: 0.6384
TH3 ROB: 31 LSQ: 10 IQ: 27, IPC: 0.6533
EPOCH ENDS
EPOCH STARTS
TH0 ROB: 22 LSQ: 13 IQ: 21 IPC: 0.6436
TH1 ROB: 99 LSQ: 70 IQ: 26, IPC: 0.7813
TH2 ROB: 21 LSQ: 13 IQ: 21, IPC: 0.6385
TH3 ROB: 57 LSQ: 20 IQ: 18, IPC: 0.6531
EPOCH ENDS
EPOCH STARTS
TH0 ROB: 25 LSQ: 6 IQ: 16 IPC: 0.6436
TH1 ROB: 125 LSQ: 90 IQ: 22, IPC: 0.7814
TH2 ROB: 0 LSQ: 0 IQ: 0, IPC: 0.6385
TH3 ROB: 42 LSQ: 14 IQ: 38, IPC: 0.6527
EPOCH ENDS
EPOCH STARTS
TH0 ROB: 34 LSQ: 16 IQ: 31 IPC: 0.6437
TH1 ROB: 96 LSQ: 70 IQ: 30, IPC: 0.7814
TH2 ROB: 22 LSQ: 12 IQ: 19, IPC: 0.6386
TH3 ROB: 8 LSQ: 2 IQ: 4, IPC: 0.6525
EPOCH ENDS
EPOCH STARTS
TH0 ROB: 26 LSQ: 10 IQ: 24 IPC: 0.6437
TH1 ROB: 88 LSQ: 62 IQ: 24, IPC: 0.7813
TH2 ROB: 28 LSQ: 6 IQ: 24, IPC: 0.6387
TH3 ROB: 27 LSQ: 9 IQ: 24, IPC: 0.6523
EPOCH ENDS
EPOCH STARTS
TH0 ROB: 28 LSQ: 4 IQ: 22 IPC: 0.6438
TH1 ROB: 93 LSQ: 67 IQ: 33, IPC: 0.7813
TH2 ROB: 38 LSQ: 6 IQ: 37, IPC: 0.6387
TH3 ROB: 8 LSQ: 3 IQ: 4, IPC: 0.6522
EPOCH ENDS
EPOCH STARTS
TH0 ROB: 39 LSQ: 9 IQ: 35 IPC: 0.6438
TH1 ROB: 110 LSQ: 79 IQ: 17, IPC: 0.7813
TH2 ROB: 37 LSQ: 16 IQ: 27, IPC: 0.6387
TH3 ROB: 0 LSQ: 0 IQ: 0, IPC: 0.6520
EPOCH ENDS
EPOCH STARTS
TH0 ROB: 30 LSQ: 10 IQ: 23 IPC: 0.6438
TH1 ROB: 78 LSQ: 56 IQ: 21, IPC: 0.7813
TH2 ROB: 33 LSQ: 12 IQ: 29, IPC: 0.6387
TH3 ROB: 37 LSQ: 6 IQ: 23, IPC: 0.6517
EPOCH ENDS
EPOCH STARTS
TH0 ROB: 37 LSQ: 16 IQ: 33 IPC: 0.6438
TH1 ROB: 138 LSQ: 99 IQ: 37, IPC: 0.7814
TH2 ROB: 23 LSQ: 11 IQ: 17, IPC: 0.6387
TH3 ROB: 15 LSQ: 7 IQ: 9, IPC: 0.6514
EPOCH ENDS
EPOCH STARTS
TH0 ROB: 34 LSQ: 12 IQ: 34 IPC: 0.6439
TH1 ROB: 76 LSQ: 55 IQ: 17, IPC: 0.7813
TH2 ROB: 12 LSQ: 4 IQ: 8, IPC: 0.6387
TH3 ROB: 35 LSQ: 13 IQ: 31, IPC: 0.6511
EPOCH ENDS
EPOCH STARTS
TH0 ROB: 36 LSQ: 11 IQ: 32 IPC: 0.6439
TH1 ROB: 142 LSQ: 103 IQ: 17, IPC: 0.7814
TH2 ROB: 8 LSQ: 1 IQ: 4, IPC: 0.6388
TH3 ROB: 43 LSQ: 17 IQ: 43, IPC: 0.6508
EPOCH ENDS
EPOCH STARTS
TH0 ROB: 58 LSQ: 14 IQ: 39 IPC: 0.6440
TH1 ROB: 143 LSQ: 102 IQ: 28, IPC: 0.7814
TH2 ROB: 20 LSQ: 8 IQ: 14, IPC: 0.6388
TH3 ROB: 19 LSQ: 5 IQ: 15, IPC: 0.6504
EPOCH ENDS
EPOCH STARTS
TH0 ROB: 30 LSQ: 10 IQ: 21 IPC: 0.6440
TH1 ROB: 101 LSQ: 74 IQ: 32, IPC: 0.7814
TH2 ROB: 35 LSQ: 16 IQ: 33, IPC: 0.6388
TH3 ROB: 10 LSQ: 3 IQ: 6, IPC: 0.6502
EPOCH ENDS
EPOCH STARTS
TH0 ROB: 21 LSQ: 8 IQ: 17 IPC: 0.6440
TH1 ROB: 84 LSQ: 60 IQ: 19, IPC: 0.7813
TH2 ROB: 30 LSQ: 7 IQ: 25, IPC: 0.6388
TH3 ROB: 35 LSQ: 12 IQ: 35, IPC: 0.6500
EPOCH ENDS
EPOCH STARTS
TH0 ROB: 26 LSQ: 10 IQ: 21 IPC: 0.6440
TH1 ROB: 94 LSQ: 68 IQ: 25, IPC: 0.7814
TH2 ROB: 29 LSQ: 6 IQ: 23, IPC: 0.6388
TH3 ROB: 32 LSQ: 12 IQ: 27, IPC: 0.6498
EPOCH ENDS
EPOCH STARTS
TH0 ROB: 26 LSQ: 9 IQ: 22 IPC: 0.6441
TH1 ROB: 73 LSQ: 52 IQ: 37, IPC: 0.7814
TH2 ROB: 21 LSQ: 6 IQ: 14, IPC: 0.6388
TH3 ROB: 27 LSQ: 7 IQ: 23, IPC: 0.6496
EPOCH ENDS
EPOCH STARTS
TH0 ROB: 0 LSQ: 0 IQ: 0 IPC: 0.6441
TH1 ROB: 65 LSQ: 47 IQ: 13, IPC: 0.7814
TH2 ROB: 56 LSQ: 19 IQ: 20, IPC: 0.6389
TH3 ROB: 24 LSQ: 4 IQ: 19, IPC: 0.6493
EPOCH ENDS
EPOCH STARTS
TH0 ROB: 37 LSQ: 15 IQ: 30 IPC: 0.6441
TH1 ROB: 85 LSQ: 61 IQ: 16, IPC: 0.7815
TH2 ROB: 12 LSQ: 3 IQ: 8, IPC: 0.6389
TH3 ROB: 42 LSQ: 16 IQ: 42, IPC: 0.6491
EPOCH ENDS
EPOCH STARTS
TH0 ROB: 20 LSQ: 8 IQ: 16 IPC: 0.6442
TH1 ROB: 142 LSQ: 103 IQ: 40, IPC: 0.7815
TH2 ROB: 34 LSQ: 12 IQ: 31, IPC: 0.6389
TH3 ROB: 13 LSQ: 3 IQ: 9, IPC: 0.6489
EPOCH ENDS
EPOCH STARTS
TH0 ROB: 40 LSQ: 16 IQ: 38 IPC: 0.6442
TH1 ROB: 48 LSQ: 35 IQ: 13, IPC: 0.7815
TH2 ROB: 26 LSQ: 8 IQ: 22, IPC: 0.6390
TH3 ROB: 28 LSQ: 10 IQ: 23, IPC: 0.6488
EPOCH ENDS
EPOCH STARTS
TH0 ROB: 25 LSQ: 3 IQ: 18 IPC: 0.6442
TH1 ROB: 122 LSQ: 88 IQ: 20, IPC: 0.7815
TH2 ROB: 37 LSQ: 12 IQ: 34, IPC: 0.6390
TH3 ROB: 30 LSQ: 11 IQ: 24, IPC: 0.6487
EPOCH ENDS
EPOCH STARTS
TH0 ROB: 15 LSQ: 7 IQ: 7 IPC: 0.6442
TH1 ROB: 103 LSQ: 75 IQ: 25, IPC: 0.7816
TH2 ROB: 47 LSQ: 20 IQ: 37, IPC: 0.6390
TH3 ROB: 28 LSQ: 11 IQ: 27, IPC: 0.6486
EPOCH ENDS
EPOCH STARTS
TH0 ROB: 24 LSQ: 9 IQ: 18 IPC: 0.6443
TH1 ROB: 115 LSQ: 84 IQ: 11, IPC: 0.7816
TH2 ROB: 10 LSQ: 3 IQ: 7, IPC: 0.6390
TH3 ROB: 48 LSQ: 17 IQ: 9, IPC: 0.6485
EPOCH ENDS
EPOCH STARTS
TH0 ROB: 5 LSQ: 3 IQ: 1 IPC: 0.6443
TH1 ROB: 65 LSQ: 47 IQ: 14, IPC: 0.7816
TH2 ROB: 13 LSQ: 7 IQ: 5, IPC: 0.6391
TH3 ROB: 80 LSQ: 28 IQ: 76, IPC: 0.6484
EPOCH ENDS
EPOCH STARTS
TH0 ROB: 15 LSQ: 2 IQ: 7 IPC: 0.6443
TH1 ROB: 97 LSQ: 70 IQ: 24, IPC: 0.7816
TH2 ROB: 32 LSQ: 15 IQ: 32, IPC: 0.6391
TH3 ROB: 41 LSQ: 15 IQ: 33, IPC: 0.6482
EPOCH ENDS
EPOCH STARTS
TH0 ROB: 35 LSQ: 11 IQ: 31 IPC: 0.6443
TH1 ROB: 128 LSQ: 91 IQ: 37, IPC: 0.7816
TH2 ROB: 19 LSQ: 6 IQ: 14, IPC: 0.6391
TH3 ROB: 24 LSQ: 9 IQ: 14, IPC: 0.6481
EPOCH ENDS
EPOCH STARTS
TH0 ROB: 23 LSQ: 9 IQ: 19 IPC: 0.6443
TH1 ROB: 131 LSQ: 94 IQ: 39, IPC: 0.7816
TH2 ROB: 30 LSQ: 14 IQ: 24, IPC: 0.6392
TH3 ROB: 49 LSQ: 17 IQ: 14, IPC: 0.6478
EPOCH ENDS
EPOCH STARTS
TH0 ROB: 36 LSQ: 15 IQ: 30 IPC: 0.6444
TH1 ROB: 115 LSQ: 84 IQ: 26, IPC: 0.7817
TH2 ROB: 31 LSQ: 16 IQ: 26, IPC: 0.6392
TH3 ROB: 20 LSQ: 7 IQ: 14, IPC: 0.6477
EPOCH ENDS
EPOCH STARTS
TH0 ROB: 16 LSQ: 9 IQ: 11 IPC: 0.6445
TH1 ROB: 112 LSQ: 81 IQ: 6, IPC: 0.7817
TH2 ROB: 68 LSQ: 14 IQ: 64, IPC: 0.6392
TH3 ROB: 23 LSQ: 8 IQ: 15, IPC: 0.6475
EPOCH ENDS
EPOCH STARTS
TH0 ROB: 22 LSQ: 3 IQ: 15 IPC: 0.6445
TH1 ROB: 102 LSQ: 74 IQ: 29, IPC: 0.7818
TH2 ROB: 25 LSQ: 13 IQ: 21, IPC: 0.6392
TH3 ROB: 35 LSQ: 5 IQ: 31, IPC: 0.6474
EPOCH ENDS
EPOCH STARTS
TH0 ROB: 33 LSQ: 16 IQ: 26 IPC: 0.6445
TH1 ROB: 97 LSQ: 69 IQ: 36, IPC: 0.7818
TH2 ROB: 25 LSQ: 12 IQ: 15, IPC: 0.6392
TH3 ROB: 24 LSQ: 8 IQ: 19, IPC: 0.6472
EPOCH ENDS
EPOCH STARTS
TH0 ROB: 36 LSQ: 15 IQ: 29 IPC: 0.6446
TH1 ROB: 87 LSQ: 62 IQ: 30, IPC: 0.7818
TH2 ROB: 21 LSQ: 5 IQ: 16, IPC: 0.6392
TH3 ROB: 26 LSQ: 5 IQ: 21, IPC: 0.6472
EPOCH ENDS
EPOCH STARTS
TH0 ROB: 26 LSQ: 10 IQ: 25 IPC: 0.6446
TH1 ROB: 61 LSQ: 44 IQ: 19, IPC: 0.7818
TH2 ROB: 84 LSQ: 23 IQ: 22, IPC: 0.6392
TH3 ROB: 29 LSQ: 12 IQ: 25, IPC: 0.6470
EPOCH ENDS
EPOCH STARTS
TH0 ROB: 26 LSQ: 10 IQ: 19 IPC: 0.6446
TH1 ROB: 71 LSQ: 52 IQ: 34, IPC: 0.7818
TH2 ROB: 29 LSQ: 8 IQ: 22, IPC: 0.6392
TH3 ROB: 25 LSQ: 9 IQ: 21, IPC: 0.6468
EPOCH ENDS
EPOCH STARTS
TH0 ROB: 34 LSQ: 10 IQ: 31 IPC: 0.6447
TH1 ROB: 88 LSQ: 62 IQ: 11, IPC: 0.7818
TH2 ROB: 33 LSQ: 7 IQ: 28, IPC: 0.6392
TH3 ROB: 37 LSQ: 12 IQ: 26, IPC: 0.6467
EPOCH ENDS
EPOCH STARTS
TH0 ROB: 50 LSQ: 13 IQ: 25 IPC: 0.6447
TH1 ROB: 93 LSQ: 67 IQ: 23, IPC: 0.7818
TH2 ROB: 24 LSQ: 7 IQ: 21, IPC: 0.6393
TH3 ROB: 28 LSQ: 9 IQ: 24, IPC: 0.6466
EPOCH ENDS
EPOCH STARTS
TH0 ROB: 30 LSQ: 9 IQ: 24 IPC: 0.6448
TH1 ROB: 68 LSQ: 50 IQ: 19, IPC: 0.7818
TH2 ROB: 18 LSQ: 4 IQ: 17, IPC: 0.6394
TH3 ROB: 89 LSQ: 32 IQ: 14, IPC: 0.6464
EPOCH ENDS
EPOCH STARTS
TH0 ROB: 22 LSQ: 8 IQ: 18 IPC: 0.6448
TH1 ROB: 123 LSQ: 87 IQ: 36, IPC: 0.7818
TH2 ROB: 30 LSQ: 13 IQ: 24, IPC: 0.6394
TH3 ROB: 24 LSQ: 8 IQ: 18, IPC: 0.6462
EPOCH ENDS
EPOCH STARTS
TH0 ROB: 39 LSQ: 15 IQ: 33 IPC: 0.6449
TH1 ROB: 103 LSQ: 75 IQ: 11, IPC: 0.7818
TH2 ROB: 38 LSQ: 8 IQ: 33, IPC: 0.6394
TH3 ROB: 25 LSQ: 8 IQ: 19, IPC: 0.6460
EPOCH ENDS
EPOCH STARTS
TH0 ROB: 19 LSQ: 4 IQ: 19 IPC: 0.6449
TH1 ROB: 110 LSQ: 79 IQ: 31, IPC: 0.7818
TH2 ROB: 27 LSQ: 5 IQ: 21, IPC: 0.6394
TH3 ROB: 40 LSQ: 14 IQ: 25, IPC: 0.6459
EPOCH ENDS
EPOCH STARTS
TH0 ROB: 5 LSQ: 0 IQ: 1 IPC: 0.6450
TH1 ROB: 125 LSQ: 90 IQ: 52, IPC: 0.7818
TH2 ROB: 29 LSQ: 8 IQ: 24, IPC: 0.6394
TH3 ROB: 25 LSQ: 9 IQ: 19, IPC: 0.6458
EPOCH ENDS
EPOCH STARTS
TH0 ROB: 33 LSQ: 13 IQ: 29 IPC: 0.6450
TH1 ROB: 73 LSQ: 55 IQ: 3, IPC: 0.7818
TH2 ROB: 35 LSQ: 20 IQ: 31, IPC: 0.6394
TH3 ROB: 36 LSQ: 12 IQ: 33, IPC: 0.6456
EPOCH ENDS
EPOCH STARTS
TH0 ROB: 30 LSQ: 11 IQ: 26 IPC: 0.6450
TH1 ROB: 107 LSQ: 77 IQ: 23, IPC: 0.7818
TH2 ROB: 41 LSQ: 15 IQ: 39, IPC: 0.6395
TH3 ROB: 16 LSQ: 4 IQ: 8, IPC: 0.6455
EPOCH ENDS
EPOCH STARTS
TH0 ROB: 31 LSQ: 8 IQ: 24 IPC: 0.6451
TH1 ROB: 38 LSQ: 27 IQ: 20, IPC: 0.7819
TH2 ROB: 34 LSQ: 9 IQ: 27, IPC: 0.6395
TH3 ROB: 29 LSQ: 10 IQ: 25, IPC: 0.6453
EPOCH ENDS
EPOCH STARTS
TH0 ROB: 0 LSQ: 0 IQ: 0 IPC: 0.6451
TH1 ROB: 90 LSQ: 65 IQ: 17, IPC: 0.7819
TH2 ROB: 30 LSQ: 10 IQ: 23, IPC: 0.6395
TH3 ROB: 36 LSQ: 6 IQ: 32, IPC: 0.6452
EPOCH ENDS
EPOCH STARTS
TH0 ROB: 38 LSQ: 15 IQ: 34 IPC: 0.6452
TH1 ROB: 69 LSQ: 50 IQ: 32, IPC: 0.7819
TH2 ROB: 18 LSQ: 10 IQ: 6, IPC: 0.6396
TH3 ROB: 28 LSQ: 11 IQ: 24, IPC: 0.6450
EPOCH ENDS
EPOCH STARTS
TH0 ROB: 12 LSQ: 4 IQ: 8 IPC: 0.6452
TH1 ROB: 143 LSQ: 103 IQ: 28, IPC: 0.7818
TH2 ROB: 43 LSQ: 23 IQ: 37, IPC: 0.6395
TH3 ROB: 27 LSQ: 9 IQ: 23, IPC: 0.6450
EPOCH ENDS
EPOCH STARTS
TH0 ROB: 31 LSQ: 13 IQ: 24 IPC: 0.6452
TH1 ROB: 99 LSQ: 72 IQ: 29, IPC: 0.7819
TH2 ROB: 29 LSQ: 9 IQ: 26, IPC: 0.6396
TH3 ROB: 18 LSQ: 5 IQ: 15, IPC: 0.6448
EPOCH ENDS
EPOCH STARTS
TH0 ROB: 32 LSQ: 16 IQ: 21 IPC: 0.6452
TH1 ROB: 91 LSQ: 65 IQ: 12, IPC: 0.7818
TH2 ROB: 45 LSQ: 13 IQ: 43, IPC: 0.6396
TH3 ROB: 61 LSQ: 20 IQ: 20, IPC: 0.6448
EPOCH ENDS
EPOCH STARTS
TH0 ROB: 33 LSQ: 5 IQ: 31 IPC: 0.6453
TH1 ROB: 91 LSQ: 65 IQ: 25, IPC: 0.7819
TH2 ROB: 27 LSQ: 6 IQ: 21, IPC: 0.6396
TH3 ROB: 5 LSQ: 2 IQ: 3, IPC: 0.6446
EPOCH ENDS
EPOCH STARTS
TH0 ROB: 32 LSQ: 9 IQ: 25 IPC: 0.6453
TH1 ROB: 68 LSQ: 50 IQ: 2, IPC: 0.7819
TH2 ROB: 42 LSQ: 19 IQ: 41, IPC: 0.6396
TH3 ROB: 62 LSQ: 22 IQ: 28, IPC: 0.6444
EPOCH ENDS
EPOCH STARTS
TH0 ROB: 26 LSQ: 1 IQ: 21 IPC: 0.6453
TH1 ROB: 120 LSQ: 87 IQ: 28, IPC: 0.7819
TH2 ROB: 13 LSQ: 5 IQ: 12, IPC: 0.6396
TH3 ROB: 23 LSQ: 7 IQ: 16, IPC: 0.6443
EPOCH ENDS
EPOCH STARTS
TH0 ROB: 21 LSQ: 8 IQ: 17 IPC: 0.6454
TH1 ROB: 96 LSQ: 70 IQ: 27, IPC: 0.7819
TH2 ROB: 38 LSQ: 16 IQ: 36, IPC: 0.6397
TH3 ROB: 28 LSQ: 11 IQ: 16, IPC: 0.6442
EPOCH ENDS
EPOCH STARTS
TH0 ROB: 35 LSQ: 11 IQ: 35 IPC: 0.6454
TH1 ROB: 117 LSQ: 85 IQ: 28, IPC: 0.7819
TH2 ROB: 25 LSQ: 5 IQ: 20, IPC: 0.6398
TH3 ROB: 17 LSQ: 5 IQ: 13, IPC: 0.6441
EPOCH ENDS
EPOCH STARTS
TH0 ROB: 45 LSQ: 20 IQ: 43 IPC: 0.6454
TH1 ROB: 87 LSQ: 62 IQ: 23, IPC: 0.7820
TH2 ROB: 26 LSQ: 12 IQ: 21, IPC: 0.6398
TH3 ROB: 14 LSQ: 7 IQ: 9, IPC: 0.6439
EPOCH ENDS
EPOCH STARTS
TH0 ROB: 41 LSQ: 7 IQ: 37 IPC: 0.6454
TH1 ROB: 106 LSQ: 76 IQ: 38, IPC: 0.7820
TH2 ROB: 25 LSQ: 6 IQ: 18, IPC: 0.6397
TH3 ROB: 9 LSQ: 3 IQ: 3, IPC: 0.6439
EPOCH ENDS
EPOCH STARTS
TH0 ROB: 33 LSQ: 12 IQ: 26 IPC: 0.6454
TH1 ROB: 100 LSQ: 73 IQ: 19, IPC: 0.7821
TH2 ROB: 15 LSQ: 3 IQ: 10, IPC: 0.6398
TH3 ROB: 41 LSQ: 15 IQ: 41, IPC: 0.6437
EPOCH ENDS
EPOCH STARTS
TH0 ROB: 31 LSQ: 12 IQ: 24 IPC: 0.6454
TH1 ROB: 110 LSQ: 76 IQ: 23, IPC: 0.7821
TH2 ROB: 25 LSQ: 5 IQ: 21, IPC: 0.6397
TH3 ROB: 34 LSQ: 13 IQ: 28, IPC: 0.6437
EPOCH ENDS
EPOCH STARTS
TH0 ROB: 36 LSQ: 16 IQ: 32 IPC: 0.6454
TH1 ROB: 158 LSQ: 114 IQ: 25, IPC: 0.7821
TH2 ROB: 31 LSQ: 10 IQ: 26, IPC: 0.6397
TH3 ROB: 17 LSQ: 7 IQ: 13, IPC: 0.6436
EPOCH ENDS
EPOCH STARTS
TH0 ROB: 26 LSQ: 10 IQ: 26 IPC: 0.6454
TH1 ROB: 103 LSQ: 73 IQ: 28, IPC: 0.7821
TH2 ROB: 0 LSQ: 0 IQ: 0, IPC: 0.6398
TH3 ROB: 71 LSQ: 25 IQ: 25, IPC: 0.6436
EPOCH ENDS
EPOCH STARTS
TH0 ROB: 30 LSQ: 7 IQ: 24 IPC: 0.6455
TH1 ROB: 87 LSQ: 62 IQ: 26, IPC: 0.7821
TH2 ROB: 21 LSQ: 12 IQ: 19, IPC: 0.6398
TH3 ROB: 28 LSQ: 10 IQ: 27, IPC: 0.6434
EPOCH ENDS
EPOCH STARTS
TH0 ROB: 25 LSQ: 8 IQ: 21 IPC: 0.6455
TH1 ROB: 86 LSQ: 62 IQ: 17, IPC: 0.7821
TH2 ROB: 33 LSQ: 16 IQ: 29, IPC: 0.6398
TH3 ROB: 34 LSQ: 6 IQ: 29, IPC: 0.6433
EPOCH ENDS
EPOCH STARTS
TH0 ROB: 0 LSQ: 0 IQ: 0 IPC: 0.6455
TH1 ROB: 77 LSQ: 56 IQ: 6, IPC: 0.7821
TH2 ROB: 122 LSQ: 35 IQ: 43, IPC: 0.6398
TH3 ROB: 25 LSQ: 10 IQ: 19, IPC: 0.6431
EPOCH ENDS
EPOCH STARTS
TH0 ROB: 4 LSQ: 3 IQ: 4 IPC: 0.6455
TH1 ROB: 49 LSQ: 36 IQ: 18, IPC: 0.7821
TH2 ROB: 26 LSQ: 8 IQ: 22, IPC: 0.6399
TH3 ROB: 97 LSQ: 35 IQ: 19, IPC: 0.6429
EPOCH ENDS
EPOCH STARTS
TH0 ROB: 21 LSQ: 8 IQ: 13 IPC: 0.6456
TH1 ROB: 95 LSQ: 69 IQ: 30, IPC: 0.7822
TH2 ROB: 18 LSQ: 9 IQ: 14, IPC: 0.6399
TH3 ROB: 78 LSQ: 28 IQ: 39, IPC: 0.6427
EPOCH ENDS
EPOCH STARTS
TH0 ROB: 31 LSQ: 10 IQ: 22 IPC: 0.6456
TH1 ROB: 109 LSQ: 78 IQ: 33, IPC: 0.7821
TH2 ROB: 23 LSQ: 8 IQ: 19, IPC: 0.6399
TH3 ROB: 29 LSQ: 13 IQ: 22, IPC: 0.6426
EPOCH ENDS
EPOCH STARTS
TH0 ROB: 35 LSQ: 13 IQ: 30 IPC: 0.6456
TH1 ROB: 92 LSQ: 66 IQ: 16, IPC: 0.7822
TH2 ROB: 32 LSQ: 12 IQ: 23, IPC: 0.6399
TH3 ROB: 0 LSQ: 0 IQ: 0, IPC: 0.6424
EPOCH ENDS
EPOCH STARTS
TH0 ROB: 20 LSQ: 8 IQ: 16 IPC: 0.6456
TH1 ROB: 88 LSQ: 62 IQ: 6, IPC: 0.7822
TH2 ROB: 32 LSQ: 14 IQ: 24, IPC: 0.6399
TH3 ROB: 55 LSQ: 19 IQ: 50, IPC: 0.6422
EPOCH ENDS
EPOCH STARTS
TH0 ROB: 19 LSQ: 8 IQ: 16 IPC: 0.6456
TH1 ROB: 83 LSQ: 59 IQ: 20, IPC: 0.7822
TH2 ROB: 24 LSQ: 6 IQ: 20, IPC: 0.6399
TH3 ROB: 43 LSQ: 16 IQ: 24, IPC: 0.6420
EPOCH ENDS
EPOCH STARTS
TH0 ROB: 27 LSQ: 8 IQ: 18 IPC: 0.6457
TH1 ROB: 97 LSQ: 70 IQ: 31, IPC: 0.7822
TH2 ROB: 28 LSQ: 8 IQ: 24, IPC: 0.6399
TH3 ROB: 2 LSQ: 0 IQ: 0, IPC: 0.6418
EPOCH ENDS
EPOCH STARTS
TH0 ROB: 13 LSQ: 2 IQ: 9 IPC: 0.6457
TH1 ROB: 116 LSQ: 85 IQ: 32, IPC: 0.7822
TH2 ROB: 21 LSQ: 6 IQ: 21, IPC: 0.6399
TH3 ROB: 74 LSQ: 13 IQ: 34, IPC: 0.6414
EPOCH ENDS
EPOCH STARTS
TH0 ROB: 38 LSQ: 19 IQ: 32 IPC: 0.6457
TH1 ROB: 131 LSQ: 94 IQ: 32, IPC: 0.7822
TH2 ROB: 19 LSQ: 6 IQ: 14, IPC: 0.6400
TH3 ROB: 24 LSQ: 9 IQ: 18, IPC: 0.6412
EPOCH ENDS
EPOCH STARTS
TH0 ROB: 37 LSQ: 16 IQ: 33 IPC: 0.6457
TH1 ROB: 89 LSQ: 63 IQ: 8, IPC: 0.7822
TH2 ROB: 36 LSQ: 12 IQ: 35, IPC: 0.6399
TH3 ROB: 28 LSQ: 12 IQ: 20, IPC: 0.6410
EPOCH ENDS
EPOCH STARTS
TH0 ROB: 9 LSQ: 3 IQ: 8 IPC: 0.6458
TH1 ROB: 93 LSQ: 67 IQ: 25, IPC: 0.7822
TH2 ROB: 28 LSQ: 9 IQ: 28, IPC: 0.6400
TH3 ROB: 31 LSQ: 14 IQ: 25, IPC: 0.6410
EPOCH ENDS
EPOCH STARTS
TH0 ROB: 34 LSQ: 16 IQ: 28 IPC: 0.6458
TH1 ROB: 83 LSQ: 61 IQ: 22, IPC: 0.7822
TH2 ROB: 22 LSQ: 9 IQ: 20, IPC: 0.6401
TH3 ROB: 32 LSQ: 13 IQ: 25, IPC: 0.6407
EPOCH ENDS
EPOCH STARTS
TH0 ROB: 31 LSQ: 4 IQ: 31 IPC: 0.6459
TH1 ROB: 73 LSQ: 53 IQ: 30, IPC: 0.7822
TH2 ROB: 30 LSQ: 7 IQ: 23, IPC: 0.6401
TH3 ROB: 17 LSQ: 6 IQ: 12, IPC: 0.6407
EPOCH ENDS
EPOCH STARTS
TH0 ROB: 18 LSQ: 6 IQ: 12 IPC: 0.6459
TH1 ROB: 100 LSQ: 73 IQ: 36, IPC: 0.7823
TH2 ROB: 76 LSQ: 25 IQ: 32, IPC: 0.6401
TH3 ROB: 20 LSQ: 6 IQ: 16, IPC: 0.6404
EPOCH ENDS
EPOCH STARTS
TH0 ROB: 23 LSQ: 8 IQ: 19 IPC: 0.6459
TH1 ROB: 88 LSQ: 62 IQ: 20, IPC: 0.7823
TH2 ROB: 27 LSQ: 9 IQ: 23, IPC: 0.6402
TH3 ROB: 39 LSQ: 13 IQ: 34, IPC: 0.6404
EPOCH ENDS
EPOCH STARTS
TH0 ROB: 35 LSQ: 11 IQ: 31 IPC: 0.6459
TH1 ROB: 128 LSQ: 93 IQ: 29, IPC: 0.7824
TH2 ROB: 24 LSQ: 8 IQ: 19, IPC: 0.6402
TH3 ROB: 26 LSQ: 9 IQ: 17, IPC: 0.6402
EPOCH ENDS
EPOCH STARTS
TH0 ROB: 25 LSQ: 11 IQ: 21 IPC: 0.6459
TH1 ROB: 103 LSQ: 73 IQ: 22, IPC: 0.7823
TH2 ROB: 29 LSQ: 12 IQ: 21, IPC: 0.6402
TH3 ROB: 35 LSQ: 11 IQ: 32, IPC: 0.6401
EPOCH ENDS
EPOCH STARTS
TH0 ROB: 14 LSQ: 9 IQ: 10 IPC: 0.6459
TH1 ROB: 91 LSQ: 65 IQ: 17, IPC: 0.7824
TH2 ROB: 37 LSQ: 11 IQ: 37, IPC: 0.6402
TH3 ROB: 40 LSQ: 14 IQ: 32, IPC: 0.6399
EPOCH ENDS
EPOCH STARTS
TH0 ROB: 36 LSQ: 16 IQ: 26 IPC: 0.6459
TH1 ROB: 123 LSQ: 89 IQ: 19, IPC: 0.7824
TH2 ROB: 41 LSQ: 20 IQ: 29, IPC: 0.6402
TH3 ROB: 28 LSQ: 5 IQ: 22, IPC: 0.6398
EPOCH ENDS
EPOCH STARTS
TH0 ROB: 4 LSQ: 3 IQ: 0 IPC: 0.6460
TH1 ROB: 118 LSQ: 85 IQ: 25, IPC: 0.7824
TH2 ROB: 29 LSQ: 5 IQ: 21, IPC: 0.6403
TH3 ROB: 35 LSQ: 12 IQ: 28, IPC: 0.6397
EPOCH ENDS
EPOCH STARTS
TH0 ROB: 3 LSQ: 2 IQ: 0 IPC: 0.6460
TH1 ROB: 120 LSQ: 85 IQ: 35, IPC: 0.7824
TH2 ROB: 4 LSQ: 2 IQ: 3, IPC: 0.6403
TH3 ROB: 12 LSQ: 3 IQ: 11, IPC: 0.6396
EPOCH ENDS
EPOCH STARTS
TH0 ROB: 28 LSQ: 6 IQ: 21 IPC: 0.6460
TH1 ROB: 93 LSQ: 67 IQ: 28, IPC: 0.7824
TH2 ROB: 22 LSQ: 10 IQ: 18, IPC: 0.6403
TH3 ROB: 29 LSQ: 11 IQ: 29, IPC: 0.6395
EPOCH ENDS
EPOCH STARTS
TH0 ROB: 39 LSQ: 12 IQ: 30 IPC: 0.6460
TH1 ROB: 55 LSQ: 41 IQ: 10, IPC: 0.7824
TH2 ROB: 32 LSQ: 14 IQ: 32, IPC: 0.6403
TH3 ROB: 43 LSQ: 16 IQ: 24, IPC: 0.6394
EPOCH ENDS
EPOCH STARTS
TH0 ROB: 36 LSQ: 6 IQ: 32 IPC: 0.6461
TH1 ROB: 97 LSQ: 70 IQ: 35, IPC: 0.7824
TH2 ROB: 16 LSQ: 3 IQ: 7, IPC: 0.6403
TH3 ROB: 27 LSQ: 9 IQ: 22, IPC: 0.6393
EPOCH ENDS
EPOCH STARTS
TH0 ROB: 35 LSQ: 14 IQ: 27 IPC: 0.6461
TH1 ROB: 109 LSQ: 78 IQ: 28, IPC: 0.7824
TH2 ROB: 18 LSQ: 6 IQ: 14, IPC: 0.6404
TH3 ROB: 37 LSQ: 14 IQ: 27, IPC: 0.6392
EPOCH ENDS
EPOCH STARTS
TH0 ROB: 34 LSQ: 10 IQ: 31 IPC: 0.6461
TH1 ROB: 178 LSQ: 128 IQ: 42, IPC: 0.7824
TH2 ROB: 17 LSQ: 4 IQ: 13, IPC: 0.6404
TH3 ROB: 14 LSQ: 6 IQ: 10, IPC: 0.6391
EPOCH ENDS
EPOCH STARTS
TH0 ROB: 19 LSQ: 9 IQ: 14 IPC: 0.6462
TH1 ROB: 119 LSQ: 86 IQ: 21, IPC: 0.7825
TH2 ROB: 34 LSQ: 6 IQ: 30, IPC: 0.6404
TH3 ROB: 36 LSQ: 12 IQ: 31, IPC: 0.6390
EPOCH ENDS
EPOCH STARTS
TH0 ROB: 32 LSQ: 5 IQ: 27 IPC: 0.6462
TH1 ROB: 140 LSQ: 101 IQ: 28, IPC: 0.7825
TH2 ROB: 28 LSQ: 8 IQ: 27, IPC: 0.6404
TH3 ROB: 18 LSQ: 7 IQ: 14, IPC: 0.6389
EPOCH ENDS
EPOCH STARTS
TH0 ROB: 29 LSQ: 5 IQ: 24 IPC: 0.6462
TH1 ROB: 125 LSQ: 91 IQ: 27, IPC: 0.7825
TH2 ROB: 9 LSQ: 4 IQ: 3, IPC: 0.6405
TH3 ROB: 19 LSQ: 6 IQ: 17, IPC: 0.6387
EPOCH ENDS
EPOCH STARTS
TH0 ROB: 21 LSQ: 1 IQ: 16 IPC: 0.6462
TH1 ROB: 147 LSQ: 105 IQ: 13, IPC: 0.7825
TH2 ROB: 38 LSQ: 10 IQ: 35, IPC: 0.6405
TH3 ROB: 43 LSQ: 16 IQ: 32, IPC: 0.6387
EPOCH ENDS
EPOCH STARTS
TH0 ROB: 19 LSQ: 4 IQ: 15 IPC: 0.6462
TH1 ROB: 120 LSQ: 87 IQ: 24, IPC: 0.7825
TH2 ROB: 28 LSQ: 13 IQ: 25, IPC: 0.6405
TH3 ROB: 24 LSQ: 10 IQ: 20, IPC: 0.6386
EPOCH ENDS
EPOCH STARTS
TH0 ROB: 42 LSQ: 17 IQ: 36 IPC: 0.6463
TH1 ROB: 117 LSQ: 83 IQ: 27, IPC: 0.7825
TH2 ROB: 4 LSQ: 2 IQ: 0, IPC: 0.6405
TH3 ROB: 63 LSQ: 12 IQ: 33, IPC: 0.6385
EPOCH ENDS
EPOCH STARTS
TH0 ROB: 48 LSQ: 13 IQ: 26 IPC: 0.6463
TH1 ROB: 69 LSQ: 51 IQ: 23, IPC: 0.7825
TH2 ROB: 23 LSQ: 3 IQ: 19, IPC: 0.6405
TH3 ROB: 25 LSQ: 9 IQ: 23, IPC: 0.6383
EPOCH ENDS
EPOCH STARTS
TH0 ROB: 33 LSQ: 16 IQ: 29 IPC: 0.6463
TH1 ROB: 111 LSQ: 80 IQ: 8, IPC: 0.7825
TH2 ROB: 30 LSQ: 9 IQ: 26, IPC: 0.6405
TH3 ROB: 37 LSQ: 14 IQ: 33, IPC: 0.6381
EPOCH ENDS
EPOCH STARTS
TH0 ROB: 18 LSQ: 10 IQ: 14 IPC: 0.6464
TH1 ROB: 104 LSQ: 75 IQ: 12, IPC: 0.7825
TH2 ROB: 15 LSQ: 5 IQ: 13, IPC: 0.6406
TH3 ROB: 21 LSQ: 6 IQ: 19, IPC: 0.6380
EPOCH ENDS
EPOCH STARTS
TH0 ROB: 32 LSQ: 12 IQ: 31 IPC: 0.6464
TH1 ROB: 78 LSQ: 56 IQ: 17, IPC: 0.7825
TH2 ROB: 31 LSQ: 6 IQ: 27, IPC: 0.6406
TH3 ROB: 0 LSQ: 0 IQ: 0, IPC: 0.6379
EPOCH ENDS
EPOCH STARTS
TH0 ROB: 35 LSQ: 15 IQ: 31 IPC: 0.6464
TH1 ROB: 106 LSQ: 76 IQ: 27, IPC: 0.7825
TH2 ROB: 21 LSQ: 6 IQ: 16, IPC: 0.6406
TH3 ROB: 47 LSQ: 18 IQ: 22, IPC: 0.6378
EPOCH ENDS
EPOCH STARTS
TH0 ROB: 35 LSQ: 6 IQ: 31 IPC: 0.6464
TH1 ROB: 79 LSQ: 56 IQ: 17, IPC: 0.7825
TH2 ROB: 34 LSQ: 6 IQ: 27, IPC: 0.6406
TH3 ROB: 0 LSQ: 0 IQ: 0, IPC: 0.6377
EPOCH ENDS
EPOCH STARTS
TH0 ROB: 32 LSQ: 16 IQ: 25 IPC: 0.6464
TH1 ROB: 163 LSQ: 118 IQ: 31, IPC: 0.7825
TH2 ROB: 6 LSQ: 2 IQ: 4, IPC: 0.6407
TH3 ROB: 30 LSQ: 11 IQ: 22, IPC: 0.6377
EPOCH ENDS
EPOCH STARTS
TH0 ROB: 27 LSQ: 9 IQ: 18 IPC: 0.6465
TH1 ROB: 65 LSQ: 47 IQ: 11, IPC: 0.7825
TH2 ROB: 43 LSQ: 18 IQ: 41, IPC: 0.6407
TH3 ROB: 32 LSQ: 10 IQ: 26, IPC: 0.6376
EPOCH ENDS
EPOCH STARTS
TH0 ROB: 39 LSQ: 17 IQ: 37 IPC: 0.6465
TH1 ROB: 114 LSQ: 83 IQ: 24, IPC: 0.7825
TH2 ROB: 18 LSQ: 7 IQ: 18, IPC: 0.6407
TH3 ROB: 87 LSQ: 33 IQ: 16, IPC: 0.6376
EPOCH ENDS
EPOCH STARTS
TH0 ROB: 43 LSQ: 17 IQ: 35 IPC: 0.6465
TH1 ROB: 49 LSQ: 36 IQ: 14, IPC: 0.7825
TH2 ROB: 39 LSQ: 15 IQ: 35, IPC: 0.6407
TH3 ROB: 0 LSQ: 0 IQ: 0, IPC: 0.6374
EPOCH ENDS
EPOCH STARTS
TH0 ROB: 18 LSQ: 8 IQ: 12 IPC: 0.6465
TH1 ROB: 106 LSQ: 76 IQ: 28, IPC: 0.7825
TH2 ROB: 36 LSQ: 18 IQ: 31, IPC: 0.6407
TH3 ROB: 30 LSQ: 10 IQ: 25, IPC: 0.6373
EPOCH ENDS
EPOCH STARTS
TH0 ROB: 45 LSQ: 18 IQ: 43 IPC: 0.6465
TH1 ROB: 80 LSQ: 57 IQ: 10, IPC: 0.7825
TH2 ROB: 34 LSQ: 14 IQ: 26, IPC: 0.6408
TH3 ROB: 21 LSQ: 7 IQ: 17, IPC: 0.6372
EPOCH ENDS
EPOCH STARTS
TH0 ROB: 56 LSQ: 14 IQ: 31 IPC: 0.6466
TH1 ROB: 97 LSQ: 70 IQ: 19, IPC: 0.7825
TH2 ROB: 20 LSQ: 6 IQ: 16, IPC: 0.6408
TH3 ROB: 37 LSQ: 6 IQ: 30, IPC: 0.6371
EPOCH ENDS
EPOCH STARTS
TH0 ROB: 7 LSQ: 1 IQ: 2 IPC: 0.6466
TH1 ROB: 81 LSQ: 58 IQ: 14, IPC: 0.7825
TH2 ROB: 62 LSQ: 28 IQ: 57, IPC: 0.6409
TH3 ROB: 29 LSQ: 10 IQ: 23, IPC: 0.6369
EPOCH ENDS
EPOCH STARTS
TH0 ROB: 24 LSQ: 8 IQ: 20 IPC: 0.6467
TH1 ROB: 95 LSQ: 68 IQ: 22, IPC: 0.7825
TH2 ROB: 26 LSQ: 13 IQ: 20, IPC: 0.6409
TH3 ROB: 15 LSQ: 6 IQ: 4, IPC: 0.6368
EPOCH ENDS
EPOCH STARTS
TH0 ROB: 40 LSQ: 16 IQ: 38 IPC: 0.6467
TH1 ROB: 139 LSQ: 100 IQ: 16, IPC: 0.7825
TH2 ROB: 8 LSQ: 1 IQ: 1, IPC: 0.6409
TH3 ROB: 82 LSQ: 30 IQ: 41, IPC: 0.6367
EPOCH ENDS
EPOCH STARTS
TH0 ROB: 24 LSQ: 7 IQ: 16 IPC: 0.6467
TH1 ROB: 97 LSQ: 70 IQ: 20, IPC: 0.7825
TH2 ROB: 27 LSQ: 12 IQ: 23, IPC: 0.6409
TH3 ROB: 37 LSQ: 16 IQ: 37, IPC: 0.6367
EPOCH ENDS
EPOCH STARTS
TH0 ROB: 26 LSQ: 14 IQ: 17 IPC: 0.6468
TH1 ROB: 71 LSQ: 53 IQ: 22, IPC: 0.7825
TH2 ROB: 24 LSQ: 9 IQ: 20, IPC: 0.6409
[...]
Thread_3_cpred_bimod.retstack_pops            0 # total number of address popped off of ret-addr stack
Thread_3_cpred_bimod.used_ras.PP            0 # total number of RAS predictions used
Thread_3_cpred_bimod.ras_hits.PP            0 # total number of RAS hits
Thread_3_cpred_bimod.ras_rate.PP <error: divide by zero> # RAS prediction rate (i.e., RAS hits/used RAS)
il1.accesses              807930118 # total number of accesses
il1.hits                  806284059 # total number of hits
il1.misses                  1646059 # total number of misses
il1.replacements            1646059 # total number of replacements
il1.writebacks                    0 # total number of writebacks
il1.invalidations                 0 # total number of invalidations
il1.miss_rate                0.0020 # miss rate (i.e., misses/ref)
il1.repl_rate                0.0020 # replacement rate (i.e., repls/ref)
il1.wb_rate                  0.0000 # writeback rate (i.e., wrbks/ref)
il1.inv_rate                 0.0000 # invalidation rate (i.e., invs/ref)
dl1.accesses              295780854 # total number of accesses
dl1.hits                  267308552 # total number of hits
dl1.misses                 28472302 # total number of misses
dl1.replacements           28472302 # total number of replacements
dl1.writebacks             17829306 # total number of writebacks
dl1.invalidations                 0 # total number of invalidations
dl1.miss_rate                0.0963 # miss rate (i.e., misses/ref)
dl1.repl_rate                0.0963 # replacement rate (i.e., repls/ref)
dl1.wb_rate                  0.0603 # writeback rate (i.e., wrbks/ref)
dl1.inv_rate                 0.0000 # invalidation rate (i.e., invs/ref)
ul2.accesses               47947667 # total number of accesses
ul2.hits                   28448369 # total number of hits
ul2.misses                 19499298 # total number of misses
ul2.replacements           19499298 # total number of replacements
ul2.writebacks             11478840 # total number of writebacks
ul2.invalidations                 0 # total number of invalidations
ul2.miss_rate                0.4067 # miss rate (i.e., misses/ref)
ul2.repl_rate                0.4067 # replacement rate (i.e., repls/ref)
ul2.wb_rate                  0.2394 # writeback rate (i.e., wrbks/ref)
ul2.inv_rate                 0.0000 # invalidation rate (i.e., invs/ref)
itlb.accesses             807930118 # total number of accesses
itlb.hits                 807929898 # total number of hits
itlb.misses                     220 # total number of misses
itlb.replacements               220 # total number of replacements
itlb.writebacks                   0 # total number of writebacks
itlb.invalidations                0 # total number of invalidations
itlb.miss_rate               0.0000 # miss rate (i.e., misses/ref)
itlb.repl_rate               0.0000 # replacement rate (i.e., repls/ref)
itlb.wb_rate                 0.0000 # writeback rate (i.e., wrbks/ref)
itlb.inv_rate                0.0000 # invalidation rate (i.e., invs/ref)
dtlb.accesses             300283579 # total number of accesses
dtlb.hits                 298514864 # total number of hits
dtlb.misses                 1768715 # total number of misses
dtlb.replacements           1768715 # total number of replacements
dtlb.writebacks                   0 # total number of writebacks
dtlb.invalidations                0 # total number of invalidations
dtlb.miss_rate               0.0059 # miss rate (i.e., misses/ref)
dtlb.repl_rate               0.0059 # replacement rate (i.e., repls/ref)
dtlb.wb_rate                 0.0000 # writeback rate (i.e., wrbks/ref)
dtlb.inv_rate                0.0000 # invalidation rate (i.e., invs/ref)
sim_invalid_addrs                 0 # total non-speculative bogus addresses seen (debug var)
ld_text_base           0x0120000000 # program text (code) segment base
mem->ld_text_size            294912 # program text (code) size in bytes
mem->ld_data_base      0x0140000000 # program initialized data segment base
mem->ld_data_size             93888 # program init'ed `.data' and uninit'ed `.bss' size in bytes
mem->ld_stack_base     0x011ff9b000 # program stack segment base (highest address in stack)
mem->ld_stack_size            16384 # program initial stack size
mem->ld_prog_entry     0x0120000300 # program entry point (initial PC)
mem->ld_environ_base   0x011ff97000 # program environment base address address
mem->ld_target_big_endian            0 # target executable endian-ness, non-zero if big endian
mem_0.page_count             108052 # total number of pages allocated
mem_0.page_mem              864416k # total size of memory pages allocated
mem_0.ptab_misses            146634 # total first level page table misses
mem_0.ptab_accesses      1404712430 # total page table accesses
mem_0.ptab_miss_rate         0.0001 # first level page table miss rate
ld_text_base           0x0120000000 # program text (code) segment base
mem->ld_text_size            221184 # program text (code) size in bytes
mem->ld_data_base      0x0140000000 # program initialized data segment base
mem->ld_data_size             79792 # program init'ed `.data' and uninit'ed `.bss' size in bytes
mem->ld_stack_base     0x011ff9b000 # program stack segment base (highest address in stack)
mem->ld_stack_size            16384 # program initial stack size
mem->ld_prog_entry     0x0120000300 # program entry point (initial PC)
mem->ld_environ_base   0x011ff97000 # program environment base address address
mem->ld_target_big_endian            0 # target executable endian-ness, non-zero if big endian
mem_0.page_count             107633 # total number of pages allocated
mem_0.page_mem              864416k # total size of memory pages allocated
mem_0.ptab_misses           1020310 # total first level page table misses
mem_0.ptab_accesses      2595746058 # total page table accesses
mem_0.ptab_miss_rate         0.0001 # first level page table miss rate
ld_text_base           0x0120000000 # program text (code) segment base
mem->ld_text_size           1212416 # program text (code) size in bytes
mem->ld_data_base      0x0140000000 # program initialized data segment base
mem->ld_data_size            160544 # program init'ed `.data' and uninit'ed `.bss' size in bytes
mem->ld_stack_base     0x011ff9b000 # program stack segment base (highest address in stack)
mem->ld_stack_size            16384 # program initial stack size
mem->ld_prog_entry     0x0120000300 # program entry point (initial PC)
mem->ld_environ_base   0x011ff97000 # program environment base address address
mem->ld_target_big_endian            0 # target executable endian-ness, non-zero if big endian
mem_0.page_count                490 # total number of pages allocated
mem_0.page_mem              864416k # total size of memory pages allocated
mem_0.ptab_misses             17396 # total first level page table misses
mem_0.ptab_accesses      1321626226 # total page table accesses
mem_0.ptab_miss_rate         0.0001 # first level page table miss rate
ld_text_base           0x0120000000 # program text (code) segment base
mem->ld_text_size            589824 # program text (code) size in bytes
mem->ld_data_base      0x0140000000 # program initialized data segment base
mem->ld_data_size            179872 # program init'ed `.data' and uninit'ed `.bss' size in bytes
mem->ld_stack_base     0x011ff9b000 # program stack segment base (highest address in stack)
mem->ld_stack_size            16384 # program initial stack size
mem->ld_prog_entry     0x0120000300 # program entry point (initial PC)
mem->ld_environ_base   0x011ff97000 # program environment base address address
mem->ld_target_big_endian            0 # target executable endian-ness, non-zero if big endian
mem_0.page_count                937 # total number of pages allocated
mem_0.page_mem              864416k # total size of memory pages allocated
mem_0.ptab_misses            132705 # total first level page table misses
mem_0.ptab_accesses      1027297133 # total page table accesses
mem_0.ptab_miss_rate         0.0001 # first level page table miss rate
rename_power           170831330.8521 # total power usage of rename unit
bpred_power            1130781596.2667 # total power usage of bpred unit
window_power           3569047442.0555 # total power usage of instruction window
lsq_power              1992927240.4008 # total power usage of load/store queue
regfile_power          893118024.3201 # total power usage of arch. regfile
icache_power           1058450497.7872 # total power usage of icache
dcache_power           2311943843.8834 # total power usage of dcache
dcache2_power          1300033981.9295 # total power usage of dcache2
alu_power              4735293863.5147 # total power usage of alu
falu_power             3570261239.8660 # total power usage of falu
resultbus_power        2253231538.7770 # total power usage of resultbus
clock_power            7621587330.2502 # total power usage of clock
avg_rename_power             0.6833 # avg power usage of rename unit
avg_bpred_power              4.5231 # avg power usage of bpred unit
avg_window_power            14.2762 # avg power usage of instruction window
avg_lsq_power                7.9717 # avg power usage of lsq
avg_regfile_power            3.5725 # avg power usage of arch. regfile
avg_icache_power             4.2338 # avg power usage of icache
avg_dcache_power             9.2478 # avg power usage of dcache
avg_dcache2_power            5.2001 # avg power usage of dcache2
avg_alu_power               18.9412 # avg power usage of alu
avg_falu_power              14.2810 # avg power usage of falu
avg_resultbus_power          9.0129 # avg power usage of resultbus
avg_clock_power             30.4863 # avg power usage of clock
fetch_stage_power      2189232094.0540 # total power usage of fetch stage
dispatch_stage_power   170831330.8521 # total power usage of dispatch stage
issue_stage_power      16162477910.5610 # total power usage of issue stage
avg_fetch_power              8.7569 # average power of fetch unit per cycle
avg_dispatch_power           0.6833 # average power of dispatch unit per cycle
avg_issue_power             64.6499 # average power of issue unit per cycle
total_power            27037246690.0374 # total power per cycle
avg_total_power_cycle      108.1490 # average total power per cycle
avg_total_power_cycle_nofp_nod2      88.6678 # average total power per cycle
avg_total_power_insn        34.9747 # average total power per insn
avg_total_power_insn_nofp_nod2      28.6746 # average total power per insn
rename_power_cc1       162310194.4065 # total power usage of rename unit_cc1
bpred_power_cc1        185994064.7147 # total power usage of bpred unit_cc1
window_power_cc1       3581263313.0727 # total power usage of instruction window_cc1
lsq_power_cc1          965694841.2288 # total power usage of lsq_cc1
regfile_power_cc1      602966124.2451 # total power usage of arch. regfile_cc1
icache_power_cc1       952242336.7384 # total power usage of icache_cc1
dcache_power_cc1       1806818769.7016 # total power usage of dcache_cc1
dcache2_power_cc1      151566544.0825 # total power usage of dcache2_cc1
alu_power_cc1          1430621285.4690 # total power usage of alu_cc1
resultbus_power_cc1    1857461077.0869 # total power usage of resultbus_cc1
clock_power_cc1        4874229842.6186 # total power usage of clock_cc1
avg_rename_power_cc1         0.6492 # avg power usage of rename unit_cc1
avg_bpred_power_cc1          0.7440 # avg power usage of bpred unit_cc1
avg_window_power_cc1        14.3251 # avg power usage of instruction window_cc1
avg_lsq_power_cc1            3.8628 # avg power usage of lsq_cc1
avg_regfile_power_cc1        2.4119 # avg power usage of arch. regfile_cc1
avg_icache_power_cc1         3.8090 # avg power usage of icache_cc1
avg_dcache_power_cc1         7.2273 # avg power usage of dcache_cc1
avg_dcache2_power_cc1        0.6063 # avg power usage of dcache2_cc1
avg_alu_power_cc1            5.7225 # avg power usage of alu_cc1
avg_resultbus_power_cc1       7.4298 # avg power usage of resultbus_cc1
avg_clock_power_cc1         19.4969 # avg power usage of clock_cc1
fetch_stage_power_cc1  1138236401.4531 # total power usage of fetch stage_cc1
dispatch_stage_power_cc1 162310194.4065 # total power usage of dispatch stage_cc1
issue_stage_power_cc1  9793425830.6413 # total power usage of issue stage_cc1
avg_fetch_power_cc1          4.5529 # average power of fetch unit per cycle_cc1
avg_dispatch_power_cc1       0.6492 # average power of dispatch unit per cycle_cc1
avg_issue_power_cc1         39.1737 # average power of issue unit per cycle_cc1
total_power_cycle_cc1  16571168393.3646 # total power per cycle_cc1
avg_total_power_cycle_cc1      66.2847 # average total power per cycle_cc1
avg_total_power_insn_cc1      21.4360 # average total power per insn_cc1
rename_power_cc2       132061517.1939 # total power usage of rename unit_cc2
bpred_power_cc2        103620209.8399 # total power usage of bpred unit_cc2
window_power_cc2       3471535353.9292 # total power usage of instruction window_cc2
lsq_power_cc2          641984546.5212 # total power usage of lsq_cc2
regfile_power_cc2      155985832.1790 # total power usage of arch. regfile_cc2
icache_power_cc2       952242336.7384 # total power usage of icache_cc2
dcache_power_cc2       1367657452.2126 # total power usage of dcache_cc2
dcache2_power_cc2      124667192.6142 # total power usage of dcache2_cc2
alu_power_cc2          853280334.5075 # total power usage of alu_cc2
resultbus_power_cc2    1536098412.7276 # total power usage of resultbus_cc2
clock_power_cc2        3896327617.5943 # total power usage of clock_cc2
avg_rename_power_cc2         0.5282 # avg power usage of rename unit_cc2
avg_bpred_power_cc2          0.4145 # avg power usage of bpred unit_cc2
avg_window_power_cc2        13.8861 # avg power usage of instruction window_cc2
avg_lsq_power_cc2            2.5679 # avg power usage of instruction lsq_cc2
avg_regfile_power_cc2        0.6239 # avg power usage of arch. regfile_cc2
avg_icache_power_cc2         3.8090 # avg power usage of icache_cc2
avg_dcache_power_cc2         5.4706 # avg power usage of dcache_cc2
avg_dcache2_power_cc2        0.4987 # avg power usage of dcache2_cc2
avg_alu_power_cc2            3.4131 # avg power usage of alu_cc2
avg_resultbus_power_cc2       6.1444 # avg power usage of resultbus_cc2
avg_clock_power_cc2         15.5853 # avg power usage of clock_cc2
fetch_stage_power_cc2  1055862546.5783 # total power usage of fetch stage_cc2
dispatch_stage_power_cc2 132061517.1939 # total power usage of dispatch stage_cc2
issue_stage_power_cc2  7995223292.5124 # total power usage of issue stage_cc2
avg_fetch_power_cc2          4.2235 # average power of fetch unit per cycle_cc2
avg_dispatch_power_cc2       0.5282 # average power of dispatch unit per cycle_cc2
avg_issue_power_cc2         31.9809 # average power of issue unit per cycle_cc2
total_power_cycle_cc2  13235460806.0578 # total power per cycle_cc2
avg_total_power_cycle_cc2      52.9418 # average total power per cycle_cc2
avg_total_power_insn_cc2      17.1210 # average total power per insn_cc2
rename_power_cc3       132913630.8705 # total power usage of rename unit_cc3
bpred_power_cc3        198176162.0569 # total power usage of bpred unit_cc3
window_power_cc3       3471983950.7867 # total power usage of instruction window_cc3
lsq_power_cc3          739914228.0883 # total power usage of lsq_cc3
regfile_power_cc3      173531443.2019 # total power usage of arch. regfile_cc3
icache_power_cc3       962863153.3600 # total power usage of icache_cc3
dcache_power_cc3       1427876309.6151 # total power usage of dcache_cc3
dcache2_power_cc3      240163622.1001 # total power usage of dcache2_cc3
alu_power_cc3          1183747594.9991 # total power usage of alu_cc3
resultbus_power_cc3    1538824382.0506 # total power usage of resultbus_cc3
clock_power_cc3        4154292491.0006 # total power usage of clock_cc3
avg_rename_power_cc3         0.5317 # avg power usage of rename unit_cc3
avg_bpred_power_cc3          0.7927 # avg power usage of bpred unit_cc3
avg_window_power_cc3        13.8879 # avg power usage of instruction window_cc3
avg_lsq_power_cc3            2.9597 # avg power usage of instruction lsq_cc3
avg_regfile_power_cc3        0.6941 # avg power usage of arch. regfile_cc3
avg_icache_power_cc3         3.8515 # avg power usage of icache_cc3
avg_dcache_power_cc3         5.7115 # avg power usage of dcache_cc3
avg_dcache2_power_cc3        0.9607 # avg power usage of dcache2_cc3
avg_alu_power_cc3            4.7350 # avg power usage of alu_cc3
avg_resultbus_power_cc3       6.1553 # avg power usage of resultbus_cc3
avg_clock_power_cc3         16.6172 # avg power usage of clock_cc3
fetch_stage_power_cc3  1161039315.4169 # total power usage of fetch stage_cc3
dispatch_stage_power_cc3 132913630.8705 # total power usage of dispatch stage_cc3
issue_stage_power_cc3  8602510087.6399 # total power usage of issue stage_cc3
avg_fetch_power_cc3          4.6442 # average power of fetch unit per cycle_cc3
avg_dispatch_power_cc3       0.5317 # average power of dispatch unit per cycle_cc3
avg_issue_power_cc3         34.4100 # average power of issue unit per cycle_cc3
total_power_cycle_cc3  14224286968.1298 # total power per cycle_cc3
avg_total_power_cycle_cc3      56.8971 # average total power per cycle_cc3
avg_total_power_insn_cc3      18.4002 # average total power per insn_cc3
total_rename_access       773052087 # total number accesses of rename unit
total_bpred_access         45817959 # total number accesses of bpred unit
total_window_access      2696767989 # total number accesses of instruction window
total_lsq_access          302216491 # total number accesses of load/store queue
total_regfile_access      625043511 # total number accesses of arch. regfile
total_icache_access       809296821 # total number accesses of icache
total_dcache_access       295780854 # total number accesses of dcache
total_dcache2_access       47947667 # total number accesses of dcache2
total_alu_access          692633447 # total number accesses of alu
total_resultbus_access    832497958 # total number accesses of resultbus
avg_rename_access            3.0922 # avg number accesses of rename unit
avg_bpred_access             0.1833 # avg number accesses of bpred unit
avg_window_access           10.7871 # avg number accesses of instruction window
avg_lsq_access               1.2089 # avg number accesses of lsq
avg_regfile_access           2.5002 # avg number accesses of arch. regfile
avg_icache_access            3.2372 # avg number accesses of icache
avg_dcache_access            1.1831 # avg number accesses of dcache
avg_dcache2_access           0.1918 # avg number accesses of dcache2
avg_alu_access               2.7705 # avg number accesses of alu
avg_resultbus_access         3.3300 # avg number accesses of resultbus
max_rename_access                 4 # max number accesses of rename unit
max_bpred_access                  6 # max number accesses of bpred unit
max_window_access                61 # max number accesses of instruction window
max_lsq_access                    4 # max number accesses of load/store queue
max_regfile_access               16 # max number accesses of arch. regfile
max_icache_access                 4 # max number accesses of icache
max_dcache_access                 4 # max number accesses of dcache
max_dcache2_access                8 # max number accesses of dcache2
max_alu_access                    4 # max number accesses of alu
max_resultbus_access             60 # max number accesses of resultbus
max_cycle_power_cc1        219.9087 # maximum cycle power usage of cc1
max_cycle_power_cc2        213.6988 # maximum cycle power usage of cc2
max_cycle_power_cc3        217.7240 # maximum cycle power usage of cc3


******* SMT STATS *******
THROUGHPUT IPC: 2.7007

TH0 IPC: 0.6709

TH1 IPC: 0.7809

TH2 IPC: 0.6371

TH3 IPC: 0.6118

