sim-outorder: SimpleScalar/Alpha Tool Set version 3.0 of August, 2003.
Copyright (c) 1994-2003 by Todd M. Austin, Ph.D. and SimpleScalar, LLC.
All Rights Reserved. This version of SimpleScalar is licensed for academic
non-commercial use.  No portion of this work may be used by any commercial
entity, or for any commercial purpose, without the prior written permission
of SimpleScalar, LLC (info@simplescalar.com).


Processor Parameters:
Issue Width: 4
Window Size: 224
Number of Virtual Registers: 32
Number of Physical Registers: 256
Datapath Width: 64
Total Power Consumption: 110.149
Branch Predictor Power Consumption: 4.52313  (4.18%)
 branch target buffer power (W): 4.16837
 local predict power (W): 0.0879711
 global predict power (W): 0.0996078
 chooser power (W): 0.0702439
 RAS power (W): 0.0969383
Rename Logic Power Consumption: 0.683325  (0.632%)
 Instruction Decode Power (W): 0.0159915
 RAT decode_power (W): 0.113514
 RAT wordline_power (W): 0.0493708
 RAT bitline_power (W): 0.493541
 DCL Comparators (W): 0.0109075
Instruction Window Power Consumption: 14.2762  (13.2%)
 tagdrive (W): 0.827064
 tagmatch (W): 0.360565
 Selection Logic (W): 0.0885831
 decode_power (W): 1.16922
 wordline_power (W): 0.0844643
 bitline_power (W): 11.7463
Load/Store Queue Power Consumption: 7.97171  (7.37%)
 tagdrive (W): 3.75392
 tagmatch (W): 1.61238
 decode_power (W): 0.181222
 wordline_power (W): 0.0150119
 bitline_power (W): 2.40917
Arch. Register File Power Consumption: 3.57247  (3.3%)
 decode_power (W): 0.113514
 wordline_power (W): 0.0844643
 bitline_power (W): 3.37449
Result Bus Power Consumption: 9.01293  (8.33%)
Total Clock Power: 30.4863  (28.2%)
Int ALU Power: 4.66013  (4.31%)
FP ALU Power: 14.281  (13.2%)
Instruction Cache Power Consumption: 3.97049  (3.67%)
 decode_power (W): 1.67268
 wordline_power (W): 0.028656
 bitline_power (W): 1.5122
 senseamp_power (W): 0.096
 tagarray_power (W): 0.660946
Itlb_power (W): 0.263317 (0.243%)
Data Cache Power Consumption: 8.34726  (7.72%)
 decode_power (W): 1.44978
 wordline_power (W): 0.196735
 bitline_power (W): 4.58765
 senseamp_power (W): 0.768
 tagarray_power (W): 1.34509
Dtlb_power (W): 0.900515 (0.833%)
Level 2 Cache Power Consumption: 5.20014 (4.81%)
 decode_power (W): 0.41817
 wordline_power (W): 0.0430878
 bitline_power (W): 3.0244
 senseamp_power (W): 0.192
 tagarray_power (W): 1.52247
sim-main: initalizing context 0:hmmerNS.1.arg
args: 0:./hmmer.base.alpha 1:./nph3.hmm 2:./swiss41 
sim: loading binary...
sim: loading ./hmmer.base.alpha
sim-main: initalizing context 1:libquantumNS.1.arg
args: 0:./libquantum.base.alpha 1:1397 2:8 
sim: loading binary...
sim: loading ./libquantum.base.alpha
warning: section `.comment' ignored...
sim-main: initalizing context 2:omnetppNS.1.arg
args: 0:./omnetpp.base.alpha 1:./omnetpp.ini 
sim: loading binary...
sim: loading ./omnetpp.base.alpha
warning: section `.comment' ignored...
sim-main: initalizing context 3:sjengNS.1.arg
args: 0:./sjeng.base.alpha 1:./ref.txt 
sim: loading binary...
sim: loading ./sjeng.base.alpha
sim: command line: ../m-sim_v2.0/sim-outorder hmmerNS.1.arg libquantumNS.1.arg omnetppNS.1.arg sjengNS.1.arg 

sim: simulation started @ Tue Aug  9 16:33:24 2022, options follow:

sim-outorder: This simulator implements a very detailed out-of-order issue
superscalar processor with a two-level memory system and speculative
execution support.  This simulator is a performance simulator, tracking the
latency of all pipeline operations.

# -config                     # load configuration from a file
# -dumpconfig                 # dump configuration to a file
# -h                    false # print help message    
# -v                    false # verbose operation     
# -d                    false # enable debug message  
# -i                    false # start in Dlite debugger
-seed                       1 # random number generator seed (0 for timer seed)
# -q                    false # initialize and terminate immediately
# -redir:sim           <null> # redirect simulator output to file (non-interactive only)
# -redir:prog          <null> # redirect simulated program output to file
-nice                       0 # simulator scheduling priority
-max:inst           250000000 # maximum number of inst's to execute
-fastfwd             10000000 # number of insts skipped before timing starts
# -ptrace              <null> # generate pipetrace, i.e., <fname|stdout|stderr> <range>
-fetch:speed                1 # speed of front-end of machine relative to execution core
-bpred                  bimod # branch predictor type {nottaken|taken|perfect|bimod|2lev|comb}
-bpred:bimod     2048 # bimodal predictor config (<table size>)
-bpred:2lev      1 1024 8 0 # 2-level predictor config (<l1size> <l2size> <hist_size> <xor>)
-bpred:comb      1024 # combining predictor config (<meta_table_size>)
-bpred:ras                  8 # return address stack size (0 for no return stack)
-bpred:btb       512 4 # BTB config (<num_sets> <associativity>)
# -bpred:spec_update       <null> # speculative predictors update in {ID|WB} (default non-spec)
-cpred                  bimod # cache load-latency predictor type {nottaken|taken|perfect|bimod|2lev|comb}
-cpred:bimod     2048 # cache load-latency bimodal predictor config (<table size>)
-cpred:2lev      1 1024 8 0 # cache load-latency 2-level predictor config (<l1size> <l2size> <hist_size> <xor>)
-cpred:comb      1024 # cache load-latency combining predictor config (<meta_table_size>)
-cpred:ras                  0 # return address stack size (0 for no return stack)
-cpred:btb       512 4 # cache load-latency BTB config (<num_sets> <associativity>)
-decode:width               4 # instruction decode B/W (insts/cycle)
-issue:width                4 # instruction issue B/W (insts/cycle)
-issue:inorder          false # run pipeline with in-order issue
-issue:wrongpath         true # issue instructions down wrong execution paths
-commit:width               4 # instruction commit B/W (insts/cycle)
-rob:size                 224 # reorder buffer (ROB) size
-fetch:policy |icount|round_robin|       icount # fetch policy          
-recovery:model        squash # Alpha squash recovery or perfect predition: |squash|perfect|
-iq:size                   96 # issue queue (IQ) size 
-iq:issue_exec_delay            1 # minimum cycles between issue and execution
-fetch_rename_delay            4 # number of cycles between fetch and rename stages
-rename_dispatch_delay            1 # number cycles between rename and dispatch stages
-rf:size                  256 # register file (RF) size for each the INT and FP physical register file)
-lsq:size                 128 # load/store queue (LSQ) size
-cache:dl1       dl1:256:32:4:l # l1 data cache config, i.e., {<config>|none}
-cache:dl1lat               1 # l1 data cache hit latency (in cycles)
-cache:dl2       ul2:1024:64:8:l # l2 data cache config, i.e., {<config>|none}
-cache:dl2lat               6 # l2 data cache hit latency (in cycles)
-cache:il1       il1:512:32:2:l # l1 inst cache config, i.e., {<config>|dl1|dl2|none}
-cache:il1lat               1 # l1 instruction cache hit latency (in cycles)
-cache:il2                dl2 # l2 instruction cache config, i.e., {<config>|dl2|none}
-cache:il2lat               6 # l2 instruction cache hit latency (in cycles)
-cache:flush            false # flush caches on system calls
-cache:icompress        false # convert 64-bit inst addresses to 32-bit inst equivalents
-mem:lat         100 2 # memory access latency (<first_chunk> <inter_chunk>)
-mem:width                  8 # memory access bus width (in bytes)
-tlb:itlb        itlb:16:4096:4:l # instruction TLB config, i.e., {<config>|none}
-tlb:dtlb        dtlb:32:4096:4:l # data TLB config, i.e., {<config>|none}
-tlb:lat                   30 # inst/data TLB miss latency (in cycles)
-res:ialu                   4 # total number of integer ALU's available
-res:imult                  1 # total number of integer multiplier/dividers available
-res:memport                2 # total number of memory system ports available (to CPU)
-res:fpalu                  4 # total number of floating point ALU's available
-res:fpmult                 1 # total number of floating point multiplier/dividers available
# -pcstat              <null> # profile stat(s) against text addr's (mult uses ok)
-power:print_stats         true # print power statistics collected by wattch?

  Pipetrace range arguments are formatted as follows:

    {{@|#}<start>}:{{@|#|+}<end>}

  Both ends of the range are optional, if neither are specified, the entire
  execution is traced.  Ranges that start with a `@' designate an address
  range to be traced, those that start with an `#' designate a cycle count
  range.  All other range values represent an instruction count range.  The
  second argument, if specified with a `+', indicates a value relative
  to the first argument, e.g., 1000:+100 == 1000:1100.  Program symbols may
  be used in all contexts.

    Examples:   -ptrace FOO.trc #0:#1000
                -ptrace BAR.trc @2000:
                -ptrace BLAH.trc :1500
                -ptrace UXXE.trc :
                -ptrace FOOBAR.trc @main:+278

  Branch predictor configuration examples for 2-level predictor:
    Configurations:   N, M, W, X
      N   # entries in first level (# of shift register(s))
      W   width of shift register(s)
      M   # entries in 2nd level (# of counters, or other FSM)
      X   (yes-1/no-0) xor history and address for 2nd level index
    Sample predictors:
      GAg     : 1, W, 2^W, 0
      GAp     : 1, W, M (M > 2^W), 0
      PAg     : N, W, 2^W, 0
      PAp     : N, W, M (M == 2^(N+W)), 0
      gshare  : 1, W, 2^W, 1
  Predictor `comb' combines a bimodal and a 2-level predictor.

  The cache config parameter <config> has the following format:

    <name>:<nsets>:<bsize>:<assoc>:<repl>

    <name>   - name of the cache being defined
    <nsets>  - number of sets in the cache
    <bsize>  - block size of the cache
    <assoc>  - associativity of the cache
    <repl>   - block replacement strategy, 'l'-LRU, 'f'-FIFO, 'r'-random

    Examples:   -cache:dl1 dl1:4096:32:1:l
                -dtlb dtlb:128:4096:32:r

  Cache levels can be unified by pointing a level of the instruction cache
  hierarchy at the data cache hiearchy using the "dl1" and "dl2" cache
  configuration arguments.  Most sensible combinations are supported, e.g.,

    A unified l2 cache (il2 is pointed at dl2):
      -cache:il1 il1:128:64:1:l -cache:il2 dl2
      -cache:dl1 dl1:256:32:1:l -cache:dl2 ul2:1024:64:2:l

    Or, a fully unified cache hierarchy (il1 pointed at dl1):
      -cache:il1 dl1
      -cache:dl1 ul1:256:32:1:l -cache:dl2 ul2:1024:64:2:l



sim: ** fast forwarding insts **
warning: unsupported ioctl call: ioctl(536900702, ...)
sim: ** starting performance simulation **
EPOCH STARTS
TH0 ROB: 4 LSQ: 0 IQ: 0 IPC: 0.0027
TH1 ROB: 106 LSQ: 87 IQ: 96, IPC: 2.1861
TH2 ROB: 4 LSQ: 3 IQ: 0, IPC: 0.0045
TH3 ROB: 4 LSQ: 3 IQ: 0, IPC: 0.0034
EPOCH ENDS
EPOCH STARTS
TH0 ROB: 4 LSQ: 0 IQ: 0 IPC: 0.0013
TH1 ROB: 105 LSQ: 87 IQ: 96, IPC: 2.1911
TH2 ROB: 4 LSQ: 3 IQ: 0, IPC: 0.0022
TH3 ROB: 4 LSQ: 3 IQ: 0, IPC: 0.0017
EPOCH ENDS
EPOCH STARTS
TH0 ROB: 4 LSQ: 0 IQ: 0 IPC: 0.0009
TH1 ROB: 105 LSQ: 86 IQ: 96, IPC: 2.1928
TH2 ROB: 4 LSQ: 3 IQ: 0, IPC: 0.0015
TH3 ROB: 4 LSQ: 3 IQ: 0, IPC: 0.0011
EPOCH ENDS
EPOCH STARTS
TH0 ROB: 4 LSQ: 0 IQ: 0 IPC: 0.0007
TH1 ROB: 105 LSQ: 86 IQ: 96, IPC: 2.1936
TH2 ROB: 4 LSQ: 3 IQ: 0, IPC: 0.0011
TH3 ROB: 4 LSQ: 3 IQ: 0, IPC: 0.0009
EPOCH ENDS
EPOCH STARTS
TH0 ROB: 4 LSQ: 0 IQ: 0 IPC: 0.0005
TH1 ROB: 105 LSQ: 86 IQ: 96, IPC: 2.1941
TH2 ROB: 4 LSQ: 3 IQ: 0, IPC: 0.0009
TH3 ROB: 4 LSQ: 3 IQ: 0, IPC: 0.0007
EPOCH ENDS
EPOCH STARTS
TH0 ROB: 4 LSQ: 0 IQ: 0 IPC: 0.0004
TH1 ROB: 105 LSQ: 86 IQ: 96, IPC: 2.1944
TH2 ROB: 4 LSQ: 3 IQ: 0, IPC: 0.0007
TH3 ROB: 4 LSQ: 3 IQ: 0, IPC: 0.0006
EPOCH ENDS
EPOCH STARTS
TH0 ROB: 4 LSQ: 0 IQ: 0 IPC: 0.0004
TH1 ROB: 105 LSQ: 87 IQ: 96, IPC: 2.1947
TH2 ROB: 4 LSQ: 3 IQ: 0, IPC: 0.0006
TH3 ROB: 4 LSQ: 3 IQ: 0, IPC: 0.0005
EPOCH ENDS
EPOCH STARTS
TH0 ROB: 4 LSQ: 0 IQ: 0 IPC: 0.0003
TH1 ROB: 105 LSQ: 86 IQ: 96, IPC: 2.1948
TH2 ROB: 4 LSQ: 3 IQ: 0, IPC: 0.0006
TH3 ROB: 4 LSQ: 3 IQ: 0, IPC: 0.0004
EPOCH ENDS
EPOCH STARTS
TH0 ROB: 4 LSQ: 0 IQ: 0 IPC: 0.0003
TH1 ROB: 105 LSQ: 86 IQ: 96, IPC: 2.1950
TH2 ROB: 4 LSQ: 3 IQ: 0, IPC: 0.0005
TH3 ROB: 4 LSQ: 3 IQ: 0, IPC: 0.0004
EPOCH ENDS
EPOCH STARTS
TH0 ROB: 4 LSQ: 0 IQ: 0 IPC: 0.0003
TH1 ROB: 105 LSQ: 86 IQ: 96, IPC: 2.1951
TH2 ROB: 4 LSQ: 3 IQ: 0, IPC: 0.0004
TH3 ROB: 4 LSQ: 3 IQ: 0, IPC: 0.0003
EPOCH ENDS
EPOCH STARTS
TH0 ROB: 4 LSQ: 0 IQ: 0 IPC: 0.0002
TH1 ROB: 105 LSQ: 87 IQ: 96, IPC: 2.1952
TH2 ROB: 4 LSQ: 3 IQ: 0, IPC: 0.0004
TH3 ROB: 4 LSQ: 3 IQ: 0, IPC: 0.0003
EPOCH ENDS
EPOCH STARTS
TH0 ROB: 4 LSQ: 0 IQ: 0 IPC: 0.0002
TH1 ROB: 105 LSQ: 88 IQ: 96, IPC: 2.1953
TH2 ROB: 4 LSQ: 3 IQ: 0, IPC: 0.0004
TH3 ROB: 4 LSQ: 3 IQ: 0, IPC: 0.0003
EPOCH ENDS
EPOCH STARTS
TH0 ROB: 4 LSQ: 0 IQ: 0 IPC: 0.0002
TH1 ROB: 104 LSQ: 85 IQ: 96, IPC: 2.1953
TH2 ROB: 4 LSQ: 3 IQ: 0, IPC: 0.0003
TH3 ROB: 4 LSQ: 3 IQ: 0, IPC: 0.0003
EPOCH ENDS
EPOCH STARTS
TH0 ROB: 4 LSQ: 0 IQ: 0 IPC: 0.0002
TH1 ROB: 104 LSQ: 85 IQ: 96, IPC: 2.1954
TH2 ROB: 4 LSQ: 3 IQ: 0, IPC: 0.0003
TH3 ROB: 4 LSQ: 3 IQ: 0, IPC: 0.0002
EPOCH ENDS
EPOCH STARTS
TH0 ROB: 4 LSQ: 0 IQ: 0 IPC: 0.0002
TH1 ROB: 105 LSQ: 86 IQ: 96, IPC: 2.1954
TH2 ROB: 4 LSQ: 3 IQ: 0, IPC: 0.0003
TH3 ROB: 4 LSQ: 3 IQ: 0, IPC: 0.0002
EPOCH ENDS
EPOCH STARTS
TH0 ROB: 4 LSQ: 0 IQ: 0 IPC: 0.0002
TH1 ROB: 105 LSQ: 87 IQ: 96, IPC: 2.1955
TH2 ROB: 4 LSQ: 3 IQ: 0, IPC: 0.0003
TH3 ROB: 4 LSQ: 3 IQ: 0, IPC: 0.0002
EPOCH ENDS
EPOCH STARTS
TH0 ROB: 4 LSQ: 0 IQ: 0 IPC: 0.0002
TH1 ROB: 106 LSQ: 87 IQ: 96, IPC: 2.1955
TH2 ROB: 4 LSQ: 3 IQ: 0, IPC: 0.0003
TH3 ROB: 4 LSQ: 3 IQ: 0, IPC: 0.0002
EPOCH ENDS
EPOCH STARTS
TH0 ROB: 4 LSQ: 0 IQ: 0 IPC: 0.0001
TH1 ROB: 104 LSQ: 85 IQ: 96, IPC: 2.1955
TH2 ROB: 4 LSQ: 3 IQ: 0, IPC: 0.0002
TH3 ROB: 4 LSQ: 3 IQ: 0, IPC: 0.0002
EPOCH ENDS
EPOCH STARTS
TH0 ROB: 4 LSQ: 0 IQ: 0 IPC: 0.0001
TH1 ROB: 104 LSQ: 85 IQ: 96, IPC: 2.1956
TH2 ROB: 4 LSQ: 3 IQ: 0, IPC: 0.0002
TH3 ROB: 4 LSQ: 3 IQ: 0, IPC: 0.0002
EPOCH ENDS
EPOCH STARTS
TH0 ROB: 4 LSQ: 0 IQ: 0 IPC: 0.0001
TH1 ROB: 104 LSQ: 85 IQ: 96, IPC: 2.1956
TH2 ROB: 4 LSQ: 3 IQ: 0, IPC: 0.0002
TH3 ROB: 4 LSQ: 3 IQ: 0, IPC: 0.0002
EPOCH ENDS
EPOCH STARTS
TH0 ROB: 4 LSQ: 0 IQ: 0 IPC: 0.0001
TH1 ROB: 105 LSQ: 87 IQ: 96, IPC: 2.1956
TH2 ROB: 4 LSQ: 3 IQ: 0, IPC: 0.0002
TH3 ROB: 4 LSQ: 3 IQ: 0, IPC: 0.0002
EPOCH ENDS
EPOCH STARTS
TH0 ROB: 4 LSQ: 0 IQ: 0 IPC: 0.0001
TH1 ROB: 105 LSQ: 86 IQ: 96, IPC: 2.1956
TH2 ROB: 4 LSQ: 3 IQ: 0, IPC: 0.0002
TH3 ROB: 4 LSQ: 3 IQ: 0, IPC: 0.0002
EPOCH ENDS
EPOCH STARTS
TH0 ROB: 4 LSQ: 0 IQ: 0 IPC: 0.0001
TH1 ROB: 104 LSQ: 85 IQ: 96, IPC: 2.1956
TH2 ROB: 4 LSQ: 3 IQ: 0, IPC: 0.0002
TH3 ROB: 4 LSQ: 3 IQ: 0, IPC: 0.0001
EPOCH ENDS
EPOCH STARTS
TH0 ROB: 4 LSQ: 0 IQ: 0 IPC: 0.0001
TH1 ROB: 104 LSQ: 85 IQ: 96, IPC: 2.1957
TH2 ROB: 4 LSQ: 3 IQ: 0, IPC: 0.0002
TH3 ROB: 4 LSQ: 3 IQ: 0, IPC: 0.0001
EPOCH ENDS
EPOCH STARTS
TH0 ROB: 4 LSQ: 0 IQ: 0 IPC: 0.0001
TH1 ROB: 104 LSQ: 87 IQ: 96, IPC: 2.1957
TH2 ROB: 4 LSQ: 3 IQ: 0, IPC: 0.0002
TH3 ROB: 4 LSQ: 3 IQ: 0, IPC: 0.0001
EPOCH ENDS
EPOCH STARTS
TH0 ROB: 4 LSQ: 0 IQ: 0 IPC: 0.0001
TH1 ROB: 105 LSQ: 87 IQ: 96, IPC: 2.1957
TH2 ROB: 4 LSQ: 3 IQ: 0, IPC: 0.0002
TH3 ROB: 4 LSQ: 3 IQ: 0, IPC: 0.0001
EPOCH ENDS
EPOCH STARTS
TH0 ROB: 4 LSQ: 0 IQ: 0 IPC: 0.0001
TH1 ROB: 105 LSQ: 85 IQ: 96, IPC: 2.1957
TH2 ROB: 4 LSQ: 3 IQ: 0, IPC: 0.0002
TH3 ROB: 4 LSQ: 3 IQ: 0, IPC: 0.0001
EPOCH ENDS
EPOCH STARTS
TH0 ROB: 4 LSQ: 0 IQ: 0 IPC: 0.0001
TH1 ROB: 104 LSQ: 85 IQ: 96, IPC: 2.1957
TH2 ROB: 4 LSQ: 3 IQ: 0, IPC: 0.0002
TH3 ROB: 4 LSQ: 3 IQ: 0, IPC: 0.0001
EPOCH ENDS
EPOCH STARTS
TH0 ROB: 4 LSQ: 0 IQ: 0 IPC: 0.0001
TH1 ROB: 104 LSQ: 85 IQ: 96, IPC: 2.1957
TH2 ROB: 4 LSQ: 3 IQ: 0, IPC: 0.0002
TH3 ROB: 4 LSQ: 3 IQ: 0, IPC: 0.0001
EPOCH ENDS
EPOCH STARTS
TH0 ROB: 4 LSQ: 0 IQ: 0 IPC: 0.0001
TH1 ROB: 104 LSQ: 86 IQ: 96, IPC: 2.1957
TH2 ROB: 4 LSQ: 3 IQ: 0, IPC: 0.0001
TH3 ROB: 4 LSQ: 3 IQ: 0, IPC: 0.0001
EPOCH ENDS
EPOCH STARTS
TH0 ROB: 4 LSQ: 0 IQ: 0 IPC: 0.0001
TH1 ROB: 107 LSQ: 88 IQ: 96, IPC: 2.1958
TH2 ROB: 4 LSQ: 3 IQ: 0, IPC: 0.0001
TH3 ROB: 4 LSQ: 3 IQ: 0, IPC: 0.0001
EPOCH ENDS
EPOCH STARTS
TH0 ROB: 4 LSQ: 0 IQ: 0 IPC: 0.0001
TH1 ROB: 105 LSQ: 86 IQ: 96, IPC: 2.1958
TH2 ROB: 4 LSQ: 3 IQ: 0, IPC: 0.0001
TH3 ROB: 4 LSQ: 3 IQ: 0, IPC: 0.0001
EPOCH ENDS
EPOCH STARTS
TH0 ROB: 4 LSQ: 0 IQ: 0 IPC: 0.0001
TH1 ROB: 105 LSQ: 85 IQ: 96, IPC: 2.1958
TH2 ROB: 4 LSQ: 3 IQ: 0, IPC: 0.0001
TH3 ROB: 4 LSQ: 3 IQ: 0, IPC: 0.0001
EPOCH ENDS
EPOCH STARTS
TH0 ROB: 4 LSQ: 0 IQ: 0 IPC: 0.0001
TH1 ROB: 104 LSQ: 85 IQ: 96, IPC: 2.1958
TH2 ROB: 4 LSQ: 3 IQ: 0, IPC: 0.0001
TH3 ROB: 4 LSQ: 3 IQ: 0, IPC: 0.0001
EPOCH ENDS
EPOCH STARTS
TH0 ROB: 4 LSQ: 0 IQ: 0 IPC: 0.0001
TH1 ROB: 105 LSQ: 87 IQ: 96, IPC: 2.1958
TH2 ROB: 4 LSQ: 3 IQ: 0, IPC: 0.0001
TH3 ROB: 4 LSQ: 3 IQ: 0, IPC: 0.0001
EPOCH ENDS
EPOCH STARTS
TH0 ROB: 4 LSQ: 0 IQ: 0 IPC: 0.0001
TH1 ROB: 105 LSQ: 86 IQ: 96, IPC: 2.1958
TH2 ROB: 4 LSQ: 3 IQ: 0, IPC: 0.0001
TH3 ROB: 4 LSQ: 3 IQ: 0, IPC: 0.0001
EPOCH ENDS
EPOCH STARTS
TH0 ROB: 4 LSQ: 0 IQ: 0 IPC: 0.0001
TH1 ROB: 104 LSQ: 85 IQ: 96, IPC: 2.1958
TH2 ROB: 4 LSQ: 3 IQ: 0, IPC: 0.0001
TH3 ROB: 4 LSQ: 3 IQ: 0, IPC: 0.0001
EPOCH ENDS
EPOCH STARTS
TH0 ROB: 4 LSQ: 0 IQ: 0 IPC: 0.0001
TH1 ROB: 105 LSQ: 86 IQ: 96, IPC: 2.1958
TH2 ROB: 4 LSQ: 3 IQ: 0, IPC: 0.0001
TH3 ROB: 4 LSQ: 3 IQ: 0, IPC: 0.0001
EPOCH ENDS
EPOCH STARTS
TH0 ROB: 4 LSQ: 0 IQ: 0 IPC: 0.0001
TH1 ROB: 105 LSQ: 87 IQ: 96, IPC: 2.1958
TH2 ROB: 4 LSQ: 3 IQ: 0, IPC: 0.0001
TH3 ROB: 4 LSQ: 3 IQ: 0, IPC: 0.0001
EPOCH ENDS
EPOCH STARTS
TH0 ROB: 4 LSQ: 0 IQ: 0 IPC: 0.0001
TH1 ROB: 105 LSQ: 87 IQ: 96, IPC: 2.1958
TH2 ROB: 4 LSQ: 3 IQ: 0, IPC: 0.0001
TH3 ROB: 4 LSQ: 3 IQ: 0, IPC: 0.0001
EPOCH ENDS
EPOCH STARTS
TH0 ROB: 4 LSQ: 0 IQ: 0 IPC: 0.0001
TH1 ROB: 106 LSQ: 87 IQ: 96, IPC: 2.1958
TH2 ROB: 4 LSQ: 3 IQ: 0, IPC: 0.0001
TH3 ROB: 4 LSQ: 3 IQ: 0, IPC: 0.0001
EPOCH ENDS
EPOCH STARTS
TH0 ROB: 4 LSQ: 0 IQ: 0 IPC: 0.0001
TH1 ROB: 104 LSQ: 85 IQ: 96, IPC: 2.1958
TH2 ROB: 4 LSQ: 3 IQ: 0, IPC: 0.0001
TH3 ROB: 4 LSQ: 3 IQ: 0, IPC: 0.0001
EPOCH ENDS
EPOCH STARTS
TH0 ROB: 4 LSQ: 0 IQ: 0 IPC: 0.0001
TH1 ROB: 104 LSQ: 85 IQ: 96, IPC: 2.1958
TH2 ROB: 4 LSQ: 3 IQ: 0, IPC: 0.0001
TH3 ROB: 4 LSQ: 3 IQ: 0, IPC: 0.0001
EPOCH ENDS
EPOCH STARTS
TH0 ROB: 4 LSQ: 0 IQ: 0 IPC: 0.0001
TH1 ROB: 105 LSQ: 87 IQ: 96, IPC: 2.1959
TH2 ROB: 4 LSQ: 3 IQ: 0, IPC: 0.0001
TH3 ROB: 4 LSQ: 3 IQ: 0, IPC: 0.0001
EPOCH ENDS
EPOCH STARTS
TH0 ROB: 4 LSQ: 0 IQ: 0 IPC: 0.0001
TH1 ROB: 106 LSQ: 87 IQ: 96, IPC: 2.1959
TH2 ROB: 4 LSQ: 3 IQ: 0, IPC: 0.0001
TH3 ROB: 4 LSQ: 3 IQ: 0, IPC: 0.0001
EPOCH ENDS
EPOCH STARTS
TH0 ROB: 4 LSQ: 0 IQ: 0 IPC: 0.0001
TH1 ROB: 106 LSQ: 87 IQ: 96, IPC: 2.1959
TH2 ROB: 4 LSQ: 3 IQ: 0, IPC: 0.0001
TH3 ROB: 4 LSQ: 3 IQ: 0, IPC: 0.0001
EPOCH ENDS
EPOCH STARTS
TH0 ROB: 4 LSQ: 0 IQ: 0 IPC: 0.0001
TH1 ROB: 106 LSQ: 87 IQ: 96, IPC: 2.1959
TH2 ROB: 4 LSQ: 3 IQ: 0, IPC: 0.0001
TH3 ROB: 4 LSQ: 3 IQ: 0, IPC: 0.0001
EPOCH ENDS
EPOCH STARTS
TH0 ROB: 4 LSQ: 0 IQ: 0 IPC: 0.0001
TH1 ROB: 104 LSQ: 86 IQ: 96, IPC: 2.1959
TH2 ROB: 4 LSQ: 3 IQ: 0, IPC: 0.0001
TH3 ROB: 4 LSQ: 3 IQ: 0, IPC: 0.0001
EPOCH ENDS
EPOCH STARTS
TH0 ROB: 4 LSQ: 0 IQ: 0 IPC: 0.0001
TH1 ROB: 104 LSQ: 87 IQ: 96, IPC: 2.1959
TH2 ROB: 4 LSQ: 3 IQ: 0, IPC: 0.0001
TH3 ROB: 4 LSQ: 3 IQ: 0, IPC: 0.0001
EPOCH ENDS
EPOCH STARTS
TH0 ROB: 4 LSQ: 0 IQ: 0 IPC: 0.0001
TH1 ROB: 105 LSQ: 86 IQ: 96, IPC: 2.1959
TH2 ROB: 4 LSQ: 3 IQ: 0, IPC: 0.0001
TH3 ROB: 4 LSQ: 3 IQ: 0, IPC: 0.0001
EPOCH ENDS
EPOCH STARTS
TH0 ROB: 4 LSQ: 0 IQ: 0 IPC: 0.0001
TH1 ROB: 105 LSQ: 86 IQ: 96, IPC: 2.1959
TH2 ROB: 4 LSQ: 3 IQ: 0, IPC: 0.0001
TH3 ROB: 4 LSQ: 3 IQ: 0, IPC: 0.0001
EPOCH ENDS
EPOCH STARTS
TH0 ROB: 4 LSQ: 0 IQ: 0 IPC: 0.0001
TH1 ROB: 106 LSQ: 87 IQ: 96, IPC: 2.1959
TH2 ROB: 4 LSQ: 3 IQ: 0, IPC: 0.0001
TH3 ROB: 4 LSQ: 3 IQ: 0, IPC: 0.0001
EPOCH ENDS
EPOCH STARTS
TH0 ROB: 4 LSQ: 0 IQ: 0 IPC: 0.0001
TH1 ROB: 105 LSQ: 87 IQ: 96, IPC: 2.1959
TH2 ROB: 4 LSQ: 3 IQ: 0, IPC: 0.0001
TH3 ROB: 4 LSQ: 3 IQ: 0, IPC: 0.0001
EPOCH ENDS
EPOCH STARTS
TH0 ROB: 4 LSQ: 0 IQ: 0 IPC: 0.0000
TH1 ROB: 105 LSQ: 86 IQ: 96, IPC: 2.1959
TH2 ROB: 4 LSQ: 3 IQ: 0, IPC: 0.0001
TH3 ROB: 4 LSQ: 3 IQ: 0, IPC: 0.0001
EPOCH ENDS
EPOCH STARTS
TH0 ROB: 4 LSQ: 0 IQ: 0 IPC: 0.0000
TH1 ROB: 105 LSQ: 86 IQ: 96, IPC: 2.1959
TH2 ROB: 4 LSQ: 3 IQ: 0, IPC: 0.0001
TH3 ROB: 4 LSQ: 3 IQ: 0, IPC: 0.0001
EPOCH ENDS
EPOCH STARTS
TH0 ROB: 4 LSQ: 0 IQ: 0 IPC: 0.0000
TH1 ROB: 105 LSQ: 86 IQ: 96, IPC: 2.1959
TH2 ROB: 4 LSQ: 3 IQ: 0, IPC: 0.0001
TH3 ROB: 4 LSQ: 3 IQ: 0, IPC: 0.0001
EPOCH ENDS
EPOCH STARTS
TH0 ROB: 4 LSQ: 0 IQ: 0 IPC: 0.0000
TH1 ROB: 105 LSQ: 86 IQ: 96, IPC: 2.1959
TH2 ROB: 4 LSQ: 3 IQ: 0, IPC: 0.0001
TH3 ROB: 4 LSQ: 3 IQ: 0, IPC: 0.0001
EPOCH ENDS
EPOCH STARTS
TH0 ROB: 4 LSQ: 0 IQ: 0 IPC: 0.0000
TH1 ROB: 105 LSQ: 87 IQ: 96, IPC: 2.1959
TH2 ROB: 4 LSQ: 3 IQ: 0, IPC: 0.0001
TH3 ROB: 4 LSQ: 3 IQ: 0, IPC: 0.0001
EPOCH ENDS
EPOCH STARTS
TH0 ROB: 4 LSQ: 0 IQ: 0 IPC: 0.0000
TH1 ROB: 105 LSQ: 86 IQ: 96, IPC: 2.1959
TH2 ROB: 4 LSQ: 3 IQ: 0, IPC: 0.0001
TH3 ROB: 4 LSQ: 3 IQ: 0, IPC: 0.0001
EPOCH ENDS
EPOCH STARTS
TH0 ROB: 4 LSQ: 0 IQ: 0 IPC: 0.0000
TH1 ROB: 105 LSQ: 86 IQ: 96, IPC: 2.1959
TH2 ROB: 4 LSQ: 3 IQ: 0, IPC: 0.0001
TH3 ROB: 4 LSQ: 3 IQ: 0, IPC: 0.0001
EPOCH ENDS
EPOCH STARTS
TH0 ROB: 4 LSQ: 0 IQ: 0 IPC: 0.0000
TH1 ROB: 105 LSQ: 86 IQ: 96, IPC: 2.1959
TH2 ROB: 4 LSQ: 3 IQ: 0, IPC: 0.0001
TH3 ROB: 4 LSQ: 3 IQ: 0, IPC: 0.0001
EPOCH ENDS
EPOCH STARTS
TH0 ROB: 4 LSQ: 0 IQ: 0 IPC: 0.0000
TH1 ROB: 105 LSQ: 87 IQ: 96, IPC: 2.1959
TH2 ROB: 4 LSQ: 3 IQ: 0, IPC: 0.0001
TH3 ROB: 4 LSQ: 3 IQ: 0, IPC: 0.0001
EPOCH ENDS
EPOCH STARTS
TH0 ROB: 4 LSQ: 0 IQ: 0 IPC: 0.0000
TH1 ROB: 105 LSQ: 88 IQ: 96, IPC: 2.1959
TH2 ROB: 4 LSQ: 3 IQ: 0, IPC: 0.0001
TH3 ROB: 4 LSQ: 3 IQ: 0, IPC: 0.0001
EPOCH ENDS
EPOCH STARTS
TH0 ROB: 4 LSQ: 0 IQ: 0 IPC: 0.0000
TH1 ROB: 104 LSQ: 85 IQ: 96, IPC: 2.1959
TH2 ROB: 4 LSQ: 3 IQ: 0, IPC: 0.0001
TH3 ROB: 4 LSQ: 3 IQ: 0, IPC: 0.0001
EPOCH ENDS
EPOCH STARTS
TH0 ROB: 4 LSQ: 0 IQ: 0 IPC: 0.0000
TH1 ROB: 104 LSQ: 85 IQ: 96, IPC: 2.1959
TH2 ROB: 4 LSQ: 3 IQ: 0, IPC: 0.0001
TH3 ROB: 4 LSQ: 3 IQ: 0, IPC: 0.0001
EPOCH ENDS
EPOCH STARTS
TH0 ROB: 4 LSQ: 0 IQ: 0 IPC: 0.0000
TH1 ROB: 105 LSQ: 86 IQ: 96, IPC: 2.1959
TH2 ROB: 4 LSQ: 3 IQ: 0, IPC: 0.0001
TH3 ROB: 4 LSQ: 3 IQ: 0, IPC: 0.0001
EPOCH ENDS
EPOCH STARTS
TH0 ROB: 4 LSQ: 0 IQ: 0 IPC: 0.0000
TH1 ROB: 105 LSQ: 87 IQ: 96, IPC: 2.1959
TH2 ROB: 4 LSQ: 3 IQ: 0, IPC: 0.0001
TH3 ROB: 4 LSQ: 3 IQ: 0, IPC: 0.0001
EPOCH ENDS
EPOCH STARTS
TH0 ROB: 4 LSQ: 0 IQ: 0 IPC: 0.0000
TH1 ROB: 106 LSQ: 87 IQ: 96, IPC: 2.1959
TH2 ROB: 4 LSQ: 3 IQ: 0, IPC: 0.0001
TH3 ROB: 4 LSQ: 3 IQ: 0, IPC: 0.0001
EPOCH ENDS
EPOCH STARTS
TH0 ROB: 4 LSQ: 0 IQ: 0 IPC: 0.0000
TH1 ROB: 104 LSQ: 85 IQ: 96, IPC: 2.1959
TH2 ROB: 4 LSQ: 3 IQ: 0, IPC: 0.0001
TH3 ROB: 4 LSQ: 3 IQ: 0, IPC: 0.0000
EPOCH ENDS
EPOCH STARTS
TH0 ROB: 4 LSQ: 0 IQ: 0 IPC: 0.0000
TH1 ROB: 104 LSQ: 85 IQ: 96, IPC: 2.1959
TH2 ROB: 4 LSQ: 3 IQ: 0, IPC: 0.0001
TH3 ROB: 4 LSQ: 3 IQ: 0, IPC: 0.0000
EPOCH ENDS
EPOCH STARTS
TH0 ROB: 4 LSQ: 0 IQ: 0 IPC: 0.0000
TH1 ROB: 104 LSQ: 85 IQ: 96, IPC: 2.1959
TH2 ROB: 4 LSQ: 3 IQ: 0, IPC: 0.0001
TH3 ROB: 4 LSQ: 3 IQ: 0, IPC: 0.0000
EPOCH ENDS
EPOCH STARTS
TH0 ROB: 4 LSQ: 0 IQ: 0 IPC: 0.0000
TH1 ROB: 105 LSQ: 87 IQ: 96, IPC: 2.1959
TH2 ROB: 4 LSQ: 3 IQ: 0, IPC: 0.0001
TH3 ROB: 4 LSQ: 3 IQ: 0, IPC: 0.0000
EPOCH ENDS
EPOCH STARTS
TH0 ROB: 4 LSQ: 0 IQ: 0 IPC: 0.0000
TH1 ROB: 105 LSQ: 86 IQ: 96, IPC: 2.1959
TH2 ROB: 4 LSQ: 3 IQ: 0, IPC: 0.0001
TH3 ROB: 4 LSQ: 3 IQ: 0, IPC: 0.0000
EPOCH ENDS
EPOCH STARTS
TH0 ROB: 4 LSQ: 0 IQ: 0 IPC: 0.0000
TH1 ROB: 104 LSQ: 85 IQ: 96, IPC: 2.1959
TH2 ROB: 4 LSQ: 3 IQ: 0, IPC: 0.0001
TH3 ROB: 4 LSQ: 3 IQ: 0, IPC: 0.0000
EPOCH ENDS
EPOCH STARTS
TH0 ROB: 4 LSQ: 0 IQ: 0 IPC: 0.0000
TH1 ROB: 104 LSQ: 85 IQ: 96, IPC: 2.1959
TH2 ROB: 4 LSQ: 3 IQ: 0, IPC: 0.0001
TH3 ROB: 4 LSQ: 3 IQ: 0, IPC: 0.0000
EPOCH ENDS
EPOCH STARTS
TH0 ROB: 4 LSQ: 0 IQ: 0 IPC: 0.0000
TH1 ROB: 104 LSQ: 87 IQ: 96, IPC: 2.1959
TH2 ROB: 4 LSQ: 3 IQ: 0, IPC: 0.0001
TH3 ROB: 4 LSQ: 3 IQ: 0, IPC: 0.0000
EPOCH ENDS
EPOCH STARTS
TH0 ROB: 4 LSQ: 0 IQ: 0 IPC: 0.0000
TH1 ROB: 105 LSQ: 87 IQ: 96, IPC: 2.1959
TH2 ROB: 4 LSQ: 3 IQ: 0, IPC: 0.0001
TH3 ROB: 4 LSQ: 3 IQ: 0, IPC: 0.0000
EPOCH ENDS
EPOCH STARTS
TH0 ROB: 4 LSQ: 0 IQ: 0 IPC: 0.0000
TH1 ROB: 105 LSQ: 85 IQ: 96, IPC: 2.1960
TH2 ROB: 4 LSQ: 3 IQ: 0, IPC: 0.0001
TH3 ROB: 4 LSQ: 3 IQ: 0, IPC: 0.0000
EPOCH ENDS
EPOCH STARTS
TH0 ROB: 4 LSQ: 0 IQ: 0 IPC: 0.0000
TH1 ROB: 104 LSQ: 85 IQ: 96, IPC: 2.1960
TH2 ROB: 4 LSQ: 3 IQ: 0, IPC: 0.0001
TH3 ROB: 4 LSQ: 3 IQ: 0, IPC: 0.0000
EPOCH ENDS
EPOCH STARTS
TH0 ROB: 4 LSQ: 0 IQ: 0 IPC: 0.0000
TH1 ROB: 104 LSQ: 85 IQ: 96, IPC: 2.1960
TH2 ROB: 4 LSQ: 3 IQ: 0, IPC: 0.0001
TH3 ROB: 4 LSQ: 3 IQ: 0, IPC: 0.0000
EPOCH ENDS
EPOCH STARTS
TH0 ROB: 4 LSQ: 0 IQ: 0 IPC: 0.0000
TH1 ROB: 104 LSQ: 86 IQ: 96, IPC: 2.1960
TH2 ROB: 4 LSQ: 3 IQ: 0, IPC: 0.0001
TH3 ROB: 4 LSQ: 3 IQ: 0, IPC: 0.0000
EPOCH ENDS
EPOCH STARTS
TH0 ROB: 4 LSQ: 0 IQ: 0 IPC: 0.0000
TH1 ROB: 107 LSQ: 88 IQ: 96, IPC: 2.1960
TH2 ROB: 4 LSQ: 3 IQ: 0, IPC: 0.0001
TH3 ROB: 4 LSQ: 3 IQ: 0, IPC: 0.0000
EPOCH ENDS
EPOCH STARTS
TH0 ROB: 4 LSQ: 0 IQ: 0 IPC: 0.0000
TH1 ROB: 105 LSQ: 86 IQ: 96, IPC: 2.1960
TH2 ROB: 4 LSQ: 3 IQ: 0, IPC: 0.0001
TH3 ROB: 4 LSQ: 3 IQ: 0, IPC: 0.0000
EPOCH ENDS
EPOCH STARTS
TH0 ROB: 4 LSQ: 0 IQ: 0 IPC: 0.0000
TH1 ROB: 105 LSQ: 85 IQ: 96, IPC: 2.1960
TH2 ROB: 4 LSQ: 3 IQ: 0, IPC: 0.0001
TH3 ROB: 4 LSQ: 3 IQ: 0, IPC: 0.0000
EPOCH ENDS
EPOCH STARTS
TH0 ROB: 4 LSQ: 0 IQ: 0 IPC: 0.0000
TH1 ROB: 104 LSQ: 85 IQ: 96, IPC: 2.1960
TH2 ROB: 4 LSQ: 3 IQ: 0, IPC: 0.0001
TH3 ROB: 4 LSQ: 3 IQ: 0, IPC: 0.0000
EPOCH ENDS
EPOCH STARTS
TH0 ROB: 4 LSQ: 2 IQ: 0 IPC: 0.0004
TH1 ROB: 4 LSQ: 0 IQ: 0, IPC: 2.1807
TH2 ROB: 104 LSQ: 63 IQ: 96, IPC: 0.0162
TH3 ROB: 4 LSQ: 3 IQ: 0, IPC: 0.0009
EPOCH ENDS
EPOCH STARTS
TH0 ROB: 4 LSQ: 2 IQ: 0 IPC: 0.0003
TH1 ROB: 4 LSQ: 0 IQ: 0, IPC: 2.1556
TH2 ROB: 104 LSQ: 63 IQ: 96, IPC: 0.0447
TH3 ROB: 4 LSQ: 3 IQ: 0, IPC: 0.0009
EPOCH ENDS
EPOCH STARTS
TH0 ROB: 4 LSQ: 2 IQ: 0 IPC: 0.0003
TH1 ROB: 4 LSQ: 0 IQ: 0, IPC: 2.1311
TH2 ROB: 104 LSQ: 63 IQ: 96, IPC: 0.0726
TH3 ROB: 4 LSQ: 3 IQ: 0, IPC: 0.0009
EPOCH ENDS
EPOCH STARTS
TH0 ROB: 4 LSQ: 2 IQ: 0 IPC: 0.0003
TH1 ROB: 4 LSQ: 0 IQ: 0, IPC: 2.1072
TH2 ROB: 104 LSQ: 63 IQ: 96, IPC: 0.0999
TH3 ROB: 4 LSQ: 3 IQ: 0, IPC: 0.0009
EPOCH ENDS
EPOCH STARTS
TH0 ROB: 4 LSQ: 2 IQ: 0 IPC: 0.0003
TH1 ROB: 4 LSQ: 0 IQ: 0, IPC: 2.0838
TH2 ROB: 104 LSQ: 63 IQ: 96, IPC: 0.1266
TH3 ROB: 4 LSQ: 3 IQ: 0, IPC: 0.0009
EPOCH ENDS
EPOCH STARTS
TH0 ROB: 4 LSQ: 2 IQ: 0 IPC: 0.0003
TH1 ROB: 4 LSQ: 0 IQ: 0, IPC: 2.0609
TH2 ROB: 104 LSQ: 63 IQ: 96, IPC: 0.1527
TH3 ROB: 4 LSQ: 3 IQ: 0, IPC: 0.0009
EPOCH ENDS
EPOCH STARTS
TH0 ROB: 4 LSQ: 2 IQ: 0 IPC: 0.0003
TH1 ROB: 4 LSQ: 0 IQ: 0, IPC: 2.0385
TH2 ROB: 104 LSQ: 63 IQ: 96, IPC: 0.1782
TH3 ROB: 4 LSQ: 3 IQ: 0, IPC: 0.0009
EPOCH ENDS
EPOCH STARTS
TH0 ROB: 4 LSQ: 2 IQ: 0 IPC: 0.0003
TH1 ROB: 4 LSQ: 0 IQ: 0, IPC: 2.0165
TH2 ROB: 104 LSQ: 63 IQ: 96, IPC: 0.2031
TH3 ROB: 4 LSQ: 3 IQ: 0, IPC: 0.0008
EPOCH ENDS
EPOCH STARTS
TH0 ROB: 4 LSQ: 2 IQ: 0 IPC: 0.0003
TH1 ROB: 4 LSQ: 0 IQ: 0, IPC: 1.9951
TH2 ROB: 104 LSQ: 63 IQ: 96, IPC: 0.2276
TH3 ROB: 4 LSQ: 3 IQ: 0, IPC: 0.0008
EPOCH ENDS
EPOCH STARTS
TH0 ROB: 4 LSQ: 2 IQ: 0 IPC: 0.0003
TH1 ROB: 4 LSQ: 0 IQ: 0, IPC: 1.9741
TH2 ROB: 104 LSQ: 63 IQ: 96, IPC: 0.2515
TH3 ROB: 4 LSQ: 3 IQ: 0, IPC: 0.0008
EPOCH ENDS
EPOCH STARTS
TH0 ROB: 4 LSQ: 2 IQ: 0 IPC: 0.0003
TH1 ROB: 4 LSQ: 0 IQ: 0, IPC: 1.9535
TH2 ROB: 104 LSQ: 63 IQ: 96, IPC: 0.2749
TH3 ROB: 4 LSQ: 3 IQ: 0, IPC: 0.0008
EPOCH ENDS
EPOCH STARTS
TH0 ROB: 4 LSQ: 2 IQ: 0 IPC: 0.0003
TH1 ROB: 4 LSQ: 0 IQ: 0, IPC: 1.9334
TH2 ROB: 104 LSQ: 63 IQ: 96, IPC: 0.2979
TH3 ROB: 4 LSQ: 3 IQ: 0, IPC: 0.0008
EPOCH ENDS
EPOCH STARTS
TH0 ROB: 4 LSQ: 2 IQ: 0 IPC: 0.0003
TH1 ROB: 4 LSQ: 0 IQ: 0, IPC: 1.9137
TH2 ROB: 104 LSQ: 63 IQ: 96, IPC: 0.3203
TH3 ROB: 4 LSQ: 3 IQ: 0, IPC: 0.0008
EPOCH ENDS
EPOCH STARTS
TH0 ROB: 4 LSQ: 2 IQ: 0 IPC: 0.0003
TH1 ROB: 4 LSQ: 0 IQ: 0, IPC: 1.8943
TH2 ROB: 104 LSQ: 63 IQ: 96, IPC: 0.3423
TH3 ROB: 4 LSQ: 3 IQ: 0, IPC: 0.0008
EPOCH ENDS
EPOCH STARTS
TH0 ROB: 4 LSQ: 2 IQ: 0 IPC: 0.0003
TH1 ROB: 4 LSQ: 0 IQ: 0, IPC: 1.8754
TH2 ROB: 104 LSQ: 63 IQ: 96, IPC: 0.3639
TH3 ROB: 4 LSQ: 3 IQ: 0, IPC: 0.0008
EPOCH ENDS
EPOCH STARTS
TH0 ROB: 4 LSQ: 2 IQ: 0 IPC: 0.0003
TH1 ROB: 4 LSQ: 0 IQ: 0, IPC: 1.8568
TH2 ROB: 104 LSQ: 63 IQ: 96, IPC: 0.3851
TH3 ROB: 4 LSQ: 3 IQ: 0, IPC: 0.0008
EPOCH ENDS
EPOCH STARTS
TH0 ROB: 4 LSQ: 2 IQ: 0 IPC: 0.0003
TH1 ROB: 4 LSQ: 0 IQ: 0, IPC: 1.8386
TH2 ROB: 104 LSQ: 63 IQ: 96, IPC: 0.4058
TH3 ROB: 4 LSQ: 3 IQ: 0, IPC: 0.0008
EPOCH ENDS
EPOCH STARTS
TH0 ROB: 4 LSQ: 2 IQ: 0 IPC: 0.0003
TH1 ROB: 4 LSQ: 0 IQ: 0, IPC: 1.8208
TH2 ROB: 104 LSQ: 63 IQ: 96, IPC: 0.4261
TH3 ROB: 4 LSQ: 3 IQ: 0, IPC: 0.0008
EPOCH ENDS
EPOCH STARTS
TH0 ROB: 4 LSQ: 2 IQ: 0 IPC: 0.0003
TH1 ROB: 4 LSQ: 0 IQ: 0, IPC: 1.8032
TH2 ROB: 104 LSQ: 63 IQ: 96, IPC: 0.4461
TH3 ROB: 4 LSQ: 3 IQ: 0, IPC: 0.0008
EPOCH ENDS
EPOCH STARTS
TH0 ROB: 4 LSQ: 2 IQ: 0 IPC: 0.0003
TH1 ROB: 4 LSQ: 0 IQ: 0, IPC: 1.7861
TH2 ROB: 104 LSQ: 63 IQ: 96, IPC: 0.4656
TH3 ROB: 4 LSQ: 3 IQ: 0, IPC: 0.0007
EPOCH ENDS
EPOCH STARTS
TH0 ROB: 4 LSQ: 2 IQ: 0 IPC: 0.0003
TH1 ROB: 4 LSQ: 0 IQ: 0, IPC: 1.7692
TH2 ROB: 104 LSQ: 63 IQ: 96, IPC: 0.4848
TH3 ROB: 4 LSQ: 3 IQ: 0, IPC: 0.0007
EPOCH ENDS
EPOCH STARTS
TH0 ROB: 4 LSQ: 2 IQ: 0 IPC: 0.0003
TH1 ROB: 4 LSQ: 0 IQ: 0, IPC: 1.7527
TH2 ROB: 104 LSQ: 63 IQ: 96, IPC: 0.5037
TH3 ROB: 4 LSQ: 3 IQ: 0, IPC: 0.0007
EPOCH ENDS
EPOCH STARTS
TH0 ROB: 4 LSQ: 2 IQ: 0 IPC: 0.0003
TH1 ROB: 4 LSQ: 0 IQ: 0, IPC: 1.7365
TH2 ROB: 104 LSQ: 63 IQ: 96, IPC: 0.5221
TH3 ROB: 4 LSQ: 3 IQ: 0, IPC: 0.0007
EPOCH ENDS
EPOCH STARTS
TH0 ROB: 4 LSQ: 2 IQ: 0 IPC: 0.0003
TH1 ROB: 4 LSQ: 0 IQ: 0, IPC: 1.7205
TH2 ROB: 104 LSQ: 63 IQ: 96, IPC: 0.5403
TH3 ROB: 4 LSQ: 3 IQ: 0, IPC: 0.0007
EPOCH ENDS
EPOCH STARTS
TH0 ROB: 4 LSQ: 2 IQ: 0 IPC: 0.0003
TH1 ROB: 4 LSQ: 0 IQ: 0, IPC: 1.7049
TH2 ROB: 104 LSQ: 63 IQ: 96, IPC: 0.5581
TH3 ROB: 4 LSQ: 3 IQ: 0, IPC: 0.0007
EPOCH ENDS
EPOCH STARTS
TH0 ROB: 4 LSQ: 2 IQ: 0 IPC: 0.0003
TH1 ROB: 4 LSQ: 0 IQ: 0, IPC: 1.6895
TH2 ROB: 104 LSQ: 63 IQ: 96, IPC: 0.5756
TH3 ROB: 4 LSQ: 3 IQ: 0, IPC: 0.0007
EPOCH ENDS
EPOCH STARTS
TH0 ROB: 4 LSQ: 2 IQ: 0 IPC: 0.0003
TH1 ROB: 4 LSQ: 0 IQ: 0, IPC: 1.6744
TH2 ROB: 104 LSQ: 63 IQ: 96, IPC: 0.5928
TH3 ROB: 4 LSQ: 3 IQ: 0, IPC: 0.0007
EPOCH ENDS
EPOCH STARTS
TH0 ROB: 4 LSQ: 2 IQ: 0 IPC: 0.0003
TH1 ROB: 4 LSQ: 0 IQ: 0, IPC: 1.6596
TH2 ROB: 104 LSQ: 63 IQ: 96, IPC: 0.6097
TH3 ROB: 4 LSQ: 3 IQ: 0, IPC: 0.0007
EPOCH ENDS
EPOCH STARTS
TH0 ROB: 4 LSQ: 2 IQ: 0 IPC: 0.0003
TH1 ROB: 4 LSQ: 0 IQ: 0, IPC: 1.6451
TH2 ROB: 104 LSQ: 63 IQ: 96, IPC: 0.6262
TH3 ROB: 4 LSQ: 3 IQ: 0, IPC: 0.0007
EPOCH ENDS
EPOCH STARTS
TH0 ROB: 4 LSQ: 2 IQ: 0 IPC: 0.0003
TH1 ROB: 4 LSQ: 0 IQ: 0, IPC: 1.6308
TH2 ROB: 104 LSQ: 63 IQ: 96, IPC: 0.6425
TH3 ROB: 4 LSQ: 3 IQ: 0, IPC: 0.0007
EPOCH ENDS
EPOCH STARTS
TH0 ROB: 4 LSQ: 2 IQ: 0 IPC: 0.0003
TH1 ROB: 4 LSQ: 0 IQ: 0, IPC: 1.6167
TH2 ROB: 104 LSQ: 63 IQ: 96, IPC: 0.6585
TH3 ROB: 4 LSQ: 3 IQ: 0, IPC: 0.0007
EPOCH ENDS
EPOCH STARTS
TH0 ROB: 4 LSQ: 2 IQ: 0 IPC: 0.0003
TH1 ROB: 4 LSQ: 0 IQ: 0, IPC: 1.6029
TH2 ROB: 104 LSQ: 63 IQ: 96, IPC: 0.6743
TH3 ROB: 4 LSQ: 3 IQ: 0, IPC: 0.0007
EPOCH ENDS
EPOCH STARTS
TH0 ROB: 4 LSQ: 2 IQ: 0 IPC: 0.0003
TH1 ROB: 4 LSQ: 0 IQ: 0, IPC: 1.5893
TH2 ROB: 104 LSQ: 63 IQ: 96, IPC: 0.6898
TH3 ROB: 4 LSQ: 3 IQ: 0, IPC: 0.0007
EPOCH ENDS
EPOCH STARTS
TH0 ROB: 4 LSQ: 2 IQ: 0 IPC: 0.0003
TH1 ROB: 4 LSQ: 0 IQ: 0, IPC: 1.5759
TH2 ROB: 104 LSQ: 63 IQ: 96, IPC: 0.7050
TH3 ROB: 4 LSQ: 3 IQ: 0, IPC: 0.0007
EPOCH ENDS
EPOCH STARTS
TH0 ROB: 4 LSQ: 2 IQ: 0 IPC: 0.0003
TH1 ROB: 4 LSQ: 0 IQ: 0, IPC: 1.5628
TH2 ROB: 104 LSQ: 63 IQ: 96, IPC: 0.7199
TH3 ROB: 4 LSQ: 3 IQ: 0, IPC: 0.0007
EPOCH ENDS
EPOCH STARTS
TH0 ROB: 4 LSQ: 2 IQ: 0 IPC: 0.0003
TH1 ROB: 4 LSQ: 0 IQ: 0, IPC: 1.5499
TH2 ROB: 104 LSQ: 63 IQ: 96, IPC: 0.7346
TH3 ROB: 4 LSQ: 3 IQ: 0, IPC: 0.0006
EPOCH ENDS
EPOCH STARTS
TH0 ROB: 4 LSQ: 2 IQ: 0 IPC: 0.0002
TH1 ROB: 4 LSQ: 0 IQ: 0, IPC: 1.5372
TH2 ROB: 104 LSQ: 63 IQ: 96, IPC: 0.7491
TH3 ROB: 4 LSQ: 3 IQ: 0, IPC: 0.0006
EPOCH ENDS
EPOCH STARTS
TH0 ROB: 4 LSQ: 2 IQ: 0 IPC: 0.0002
TH1 ROB: 4 LSQ: 0 IQ: 0, IPC: 1.5247
TH2 ROB: 104 LSQ: 63 IQ: 96, IPC: 0.7633
TH3 ROB: 4 LSQ: 3 IQ: 0, IPC: 0.0006
EPOCH ENDS
EPOCH STARTS
TH0 ROB: 4 LSQ: 2 IQ: 0 IPC: 0.0002
TH1 ROB: 4 LSQ: 0 IQ: 0, IPC: 1.5124
TH2 ROB: 104 LSQ: 63 IQ: 96, IPC: 0.7774
TH3 ROB: 4 LSQ: 3 IQ: 0, IPC: 0.0006
EPOCH ENDS
EPOCH STARTS
TH0 ROB: 4 LSQ: 2 IQ: 0 IPC: 0.0002
TH1 ROB: 4 LSQ: 0 IQ: 0, IPC: 1.5003
TH2 ROB: 104 LSQ: 63 IQ: 96, IPC: 0.7911
TH3 ROB: 4 LSQ: 3 IQ: 0, IPC: 0.0006
EPOCH ENDS
EPOCH STARTS
TH0 ROB: 4 LSQ: 2 IQ: 0 IPC: 0.0002
TH1 ROB: 4 LSQ: 0 IQ: 0, IPC: 1.4884
TH2 ROB: 104 LSQ: 63 IQ: 96, IPC: 0.8047
TH3 ROB: 4 LSQ: 3 IQ: 0, IPC: 0.0006
EPOCH ENDS
EPOCH STARTS
TH0 ROB: 4 LSQ: 2 IQ: 0 IPC: 0.0002
TH1 ROB: 4 LSQ: 0 IQ: 0, IPC: 1.4767
TH2 ROB: 104 LSQ: 63 IQ: 96, IPC: 0.8180
TH3 ROB: 4 LSQ: 3 IQ: 0, IPC: 0.0006
EPOCH ENDS
EPOCH STARTS
TH0 ROB: 4 LSQ: 2 IQ: 0 IPC: 0.0002
TH1 ROB: 4 LSQ: 0 IQ: 0, IPC: 1.4651
TH2 ROB: 104 LSQ: 63 IQ: 96, IPC: 0.8312
TH3 ROB: 4 LSQ: 3 IQ: 0, IPC: 0.0006
EPOCH ENDS
EPOCH STARTS
TH0 ROB: 4 LSQ: 2 IQ: 0 IPC: 0.0002
TH1 ROB: 4 LSQ: 0 IQ: 0, IPC: 1.4538
TH2 ROB: 104 LSQ: 63 IQ: 96, IPC: 0.8441
TH3 ROB: 4 LSQ: 3 IQ: 0, IPC: 0.0006
EPOCH ENDS
EPOCH STARTS
TH0 ROB: 4 LSQ: 2 IQ: 0 IPC: 0.0002
TH1 ROB: 4 LSQ: 0 IQ: 0, IPC: 1.4426
TH2 ROB: 104 LSQ: 63 IQ: 96, IPC: 0.8569
TH3 ROB: 4 LSQ: 3 IQ: 0, IPC: 0.0006
EPOCH ENDS
EPOCH STARTS
TH0 ROB: 4 LSQ: 2 IQ: 0 IPC: 0.0002
TH1 ROB: 4 LSQ: 0 IQ: 0, IPC: 1.4316
TH2 ROB: 104 LSQ: 63 IQ: 96, IPC: 0.8694
TH3 ROB: 4 LSQ: 3 IQ: 0, IPC: 0.0006
EPOCH ENDS
EPOCH STARTS
TH0 ROB: 4 LSQ: 2 IQ: 0 IPC: 0.0002
TH1 ROB: 4 LSQ: 0 IQ: 0, IPC: 1.4207
TH2 ROB: 104 LSQ: 63 IQ: 96, IPC: 0.8818
TH3 ROB: 4 LSQ: 3 IQ: 0, IPC: 0.0006
EPOCH ENDS
EPOCH STARTS
TH0 ROB: 4 LSQ: 2 IQ: 0 IPC: 0.0002
TH1 ROB: 4 LSQ: 0 IQ: 0, IPC: 1.4101
TH2 ROB: 104 LSQ: 63 IQ: 96, IPC: 0.8939
TH3 ROB: 4 LSQ: 3 IQ: 0, IPC: 0.0006
EPOCH ENDS
EPOCH STARTS
TH0 ROB: 4 LSQ: 2 IQ: 0 IPC: 0.0002
TH1 ROB: 4 LSQ: 0 IQ: 0, IPC: 1.3995
TH2 ROB: 104 LSQ: 63 IQ: 96, IPC: 0.9059
TH3 ROB: 4 LSQ: 3 IQ: 0, IPC: 0.0006
EPOCH ENDS
EPOCH STARTS
TH0 ROB: 4 LSQ: 2 IQ: 0 IPC: 0.0002
TH1 ROB: 4 LSQ: 0 IQ: 0, IPC: 1.3892
TH2 ROB: 104 LSQ: 63 IQ: 96, IPC: 0.9177
TH3 ROB: 4 LSQ: 3 IQ: 0, IPC: 0.0006
EPOCH ENDS
EPOCH STARTS
TH0 ROB: 4 LSQ: 2 IQ: 0 IPC: 0.0002
TH1 ROB: 4 LSQ: 0 IQ: 0, IPC: 1.3790
TH2 ROB: 104 LSQ: 63 IQ: 96, IPC: 0.9293
TH3 ROB: 4 LSQ: 3 IQ: 0, IPC: 0.0006
EPOCH ENDS
EPOCH STARTS
TH0 ROB: 4 LSQ: 2 IQ: 0 IPC: 0.0002
TH1 ROB: 4 LSQ: 0 IQ: 0, IPC: 1.3689
TH2 ROB: 104 LSQ: 63 IQ: 96, IPC: 0.9408
TH3 ROB: 4 LSQ: 3 IQ: 0, IPC: 0.0006
EPOCH ENDS
EPOCH STARTS
TH0 ROB: 4 LSQ: 2 IQ: 0 IPC: 0.0002
TH1 ROB: 4 LSQ: 0 IQ: 0, IPC: 1.3590
TH2 ROB: 104 LSQ: 63 IQ: 96, IPC: 0.9521
TH3 ROB: 4 LSQ: 3 IQ: 0, IPC: 0.0006
EPOCH ENDS
EPOCH STARTS
TH0 ROB: 4 LSQ: 2 IQ: 0 IPC: 0.0002
TH1 ROB: 4 LSQ: 0 IQ: 0, IPC: 1.3492
TH2 ROB: 104 LSQ: 63 IQ: 96, IPC: 0.9632
TH3 ROB: 4 LSQ: 3 IQ: 0, IPC: 0.0006
EPOCH ENDS
EPOCH STARTS
TH0 ROB: 4 LSQ: 2 IQ: 0 IPC: 0.0002
TH1 ROB: 4 LSQ: 0 IQ: 0, IPC: 1.3396
TH2 ROB: 104 LSQ: 63 IQ: 96, IPC: 0.9742
TH3 ROB: 4 LSQ: 3 IQ: 0, IPC: 0.0006
EPOCH ENDS
EPOCH STARTS
TH0 ROB: 4 LSQ: 2 IQ: 0 IPC: 0.0002
TH1 ROB: 4 LSQ: 0 IQ: 0, IPC: 1.3301
TH2 ROB: 104 LSQ: 63 IQ: 96, IPC: 0.9850
TH3 ROB: 4 LSQ: 3 IQ: 0, IPC: 0.0006
EPOCH ENDS
EPOCH STARTS
TH0 ROB: 4 LSQ: 2 IQ: 0 IPC: 0.0002
TH1 ROB: 4 LSQ: 0 IQ: 0, IPC: 1.3207
TH2 ROB: 104 LSQ: 63 IQ: 96, IPC: 0.9957
TH3 ROB: 4 LSQ: 3 IQ: 0, IPC: 0.0006
EPOCH ENDS
EPOCH STARTS
TH0 ROB: 4 LSQ: 2 IQ: 0 IPC: 0.0002
TH1 ROB: 4 LSQ: 0 IQ: 0, IPC: 1.3115
TH2 ROB: 104 LSQ: 63 IQ: 96, IPC: 1.0062
TH3 ROB: 4 LSQ: 3 IQ: 0, IPC: 0.0005
EPOCH ENDS
EPOCH STARTS
TH0 ROB: 4 LSQ: 2 IQ: 0 IPC: 0.0002
TH1 ROB: 4 LSQ: 0 IQ: 0, IPC: 1.3023
TH2 ROB: 104 LSQ: 63 IQ: 96, IPC: 1.0166
TH3 ROB: 4 LSQ: 3 IQ: 0, IPC: 0.0005
EPOCH ENDS
EPOCH STARTS
TH0 ROB: 4 LSQ: 2 IQ: 0 IPC: 0.0002
TH1 ROB: 4 LSQ: 0 IQ: 0, IPC: 1.2934
TH2 ROB: 104 LSQ: 63 IQ: 96, IPC: 1.0268
TH3 ROB: 4 LSQ: 3 IQ: 0, IPC: 0.0005
EPOCH ENDS
EPOCH STARTS
TH0 ROB: 4 LSQ: 2 IQ: 0 IPC: 0.0002
TH1 ROB: 4 LSQ: 0 IQ: 0, IPC: 1.2845
TH2 ROB: 104 LSQ: 63 IQ: 96, IPC: 1.0369
TH3 ROB: 4 LSQ: 3 IQ: 0, IPC: 0.0005
EPOCH ENDS
EPOCH STARTS
TH0 ROB: 4 LSQ: 2 IQ: 0 IPC: 0.0002
TH1 ROB: 4 LSQ: 0 IQ: 0, IPC: 1.2758
TH2 ROB: 104 LSQ: 63 IQ: 96, IPC: 1.0469
TH3 ROB: 4 LSQ: 3 IQ: 0, IPC: 0.0005
EPOCH ENDS
EPOCH STARTS
TH0 ROB: 4 LSQ: 2 IQ: 0 IPC: 0.0002
TH1 ROB: 4 LSQ: 0 IQ: 0, IPC: 1.2671
TH2 ROB: 104 LSQ: 63 IQ: 96, IPC: 1.0567
TH3 ROB: 4 LSQ: 3 IQ: 0, IPC: 0.0005
EPOCH ENDS
EPOCH STARTS
TH0 ROB: 4 LSQ: 2 IQ: 0 IPC: 0.0002
TH1 ROB: 4 LSQ: 0 IQ: 0, IPC: 1.2586
TH2 ROB: 104 LSQ: 63 IQ: 96, IPC: 1.0664
TH3 ROB: 4 LSQ: 3 IQ: 0, IPC: 0.0005
EPOCH ENDS
EPOCH STARTS
TH0 ROB: 4 LSQ: 2 IQ: 0 IPC: 0.0002
TH1 ROB: 4 LSQ: 0 IQ: 0, IPC: 1.2503
TH2 ROB: 104 LSQ: 63 IQ: 96, IPC: 1.0759
TH3 ROB: 4 LSQ: 3 IQ: 0, IPC: 0.0005
EPOCH ENDS
EPOCH STARTS
TH0 ROB: 4 LSQ: 2 IQ: 0 IPC: 0.0002
TH1 ROB: 4 LSQ: 0 IQ: 0, IPC: 1.2420
TH2 ROB: 104 LSQ: 63 IQ: 96, IPC: 1.0854
TH3 ROB: 4 LSQ: 3 IQ: 0, IPC: 0.0005
EPOCH ENDS
EPOCH STARTS
TH0 ROB: 4 LSQ: 2 IQ: 0 IPC: 0.0002
TH1 ROB: 4 LSQ: 0 IQ: 0, IPC: 1.2338
TH2 ROB: 104 LSQ: 63 IQ: 96, IPC: 1.0947
TH3 ROB: 4 LSQ: 3 IQ: 0, IPC: 0.0005
EPOCH ENDS
EPOCH STARTS
TH0 ROB: 4 LSQ: 2 IQ: 0 IPC: 0.0002
TH1 ROB: 4 LSQ: 0 IQ: 0, IPC: 1.2257
TH2 ROB: 104 LSQ: 63 IQ: 96, IPC: 1.1039
TH3 ROB: 4 LSQ: 3 IQ: 0, IPC: 0.0005
EPOCH ENDS
EPOCH STARTS
TH0 ROB: 4 LSQ: 2 IQ: 0 IPC: 0.0002
TH1 ROB: 4 LSQ: 0 IQ: 0, IPC: 1.2178
TH2 ROB: 104 LSQ: 63 IQ: 96, IPC: 1.1129
TH3 ROB: 4 LSQ: 3 IQ: 0, IPC: 0.0005
EPOCH ENDS
EPOCH STARTS
TH0 ROB: 4 LSQ: 2 IQ: 0 IPC: 0.0002
TH1 ROB: 4 LSQ: 0 IQ: 0, IPC: 1.2099
TH2 ROB: 104 LSQ: 63 IQ: 96, IPC: 1.1219
TH3 ROB: 4 LSQ: 3 IQ: 0, IPC: 0.0005
EPOCH ENDS
EPOCH STARTS
TH0 ROB: 4 LSQ: 2 IQ: 0 IPC: 0.0002
TH1 ROB: 4 LSQ: 0 IQ: 0, IPC: 1.2022
TH2 ROB: 104 LSQ: 63 IQ: 96, IPC: 1.1307
TH3 ROB: 4 LSQ: 3 IQ: 0, IPC: 0.0005
EPOCH ENDS
EPOCH STARTS
TH0 ROB: 4 LSQ: 2 IQ: 0 IPC: 0.0002
TH1 ROB: 4 LSQ: 0 IQ: 0, IPC: 1.1945
TH2 ROB: 104 LSQ: 63 IQ: 96, IPC: 1.1394
TH3 ROB: 4 LSQ: 3 IQ: 0, IPC: 0.0005
EPOCH ENDS
EPOCH STARTS
TH0 ROB: 4 LSQ: 2 IQ: 0 IPC: 0.0002
TH1 ROB: 4 LSQ: 0 IQ: 0, IPC: 1.1869
TH2 ROB: 104 LSQ: 63 IQ: 96, IPC: 1.1480
TH3 ROB: 4 LSQ: 3 IQ: 0, IPC: 0.0005
EPOCH ENDS
EPOCH STARTS
TH0 ROB: 4 LSQ: 2 IQ: 0 IPC: 0.0002
TH1 ROB: 4 LSQ: 0 IQ: 0, IPC: 1.1795
TH2 ROB: 104 LSQ: 63 IQ: 96, IPC: 1.1566
TH3 ROB: 4 LSQ: 3 IQ: 0, IPC: 0.0005
EPOCH ENDS
EPOCH STARTS
TH0 ROB: 4 LSQ: 2 IQ: 0 IPC: 0.0002
TH1 ROB: 4 LSQ: 0 IQ: 0, IPC: 1.1721
TH2 ROB: 104 LSQ: 63 IQ: 96, IPC: 1.1649
TH3 ROB: 4 LSQ: 3 IQ: 0, IPC: 0.0005
EPOCH ENDS
EPOCH STARTS
TH0 ROB: 4 LSQ: 2 IQ: 0 IPC: 0.0002
TH1 ROB: 4 LSQ: 0 IQ: 0, IPC: 1.1648
TH2 ROB: 104 LSQ: 63 IQ: 96, IPC: 1.1732
TH3 ROB: 4 LSQ: 3 IQ: 0, IPC: 0.0005
EPOCH ENDS
EPOCH STARTS
TH0 ROB: 4 LSQ: 2 IQ: 0 IPC: 0.0002
TH1 ROB: 4 LSQ: 0 IQ: 0, IPC: 1.1576
TH2 ROB: 104 LSQ: 63 IQ: 96, IPC: 1.1814
TH3 ROB: 4 LSQ: 3 IQ: 0, IPC: 0.0005
EPOCH ENDS
EPOCH STARTS
TH0 ROB: 4 LSQ: 2 IQ: 0 IPC: 0.0002
TH1 ROB: 4 LSQ: 0 IQ: 0, IPC: 1.1505
TH2 ROB: 104 LSQ: 63 IQ: 96, IPC: 1.1895
TH3 ROB: 4 LSQ: 3 IQ: 0, IPC: 0.0005
EPOCH ENDS
EPOCH STARTS
TH0 ROB: 4 LSQ: 2 IQ: 0 IPC: 0.0002
TH1 ROB: 4 LSQ: 0 IQ: 0, IPC: 1.1435
TH2 ROB: 104 LSQ: 63 IQ: 96, IPC: 1.1975
TH3 ROB: 4 LSQ: 3 IQ: 0, IPC: 0.0005
EPOCH ENDS
EPOCH STARTS
TH0 ROB: 4 LSQ: 2 IQ: 0 IPC: 0.0002
TH1 ROB: 4 LSQ: 0 IQ: 0, IPC: 1.1366
TH2 ROB: 104 LSQ: 63 IQ: 96, IPC: 1.2054
TH3 ROB: 4 LSQ: 3 IQ: 0, IPC: 0.0005
EPOCH ENDS
EPOCH STARTS
TH0 ROB: 4 LSQ: 2 IQ: 0 IPC: 0.0002
TH1 ROB: 4 LSQ: 0 IQ: 0, IPC: 1.1297
TH2 ROB: 104 LSQ: 63 IQ: 96, IPC: 1.2132
TH3 ROB: 4 LSQ: 3 IQ: 0, IPC: 0.0005
EPOCH ENDS
EPOCH STARTS
TH0 ROB: 4 LSQ: 2 IQ: 0 IPC: 0.0002
TH1 ROB: 4 LSQ: 0 IQ: 0, IPC: 1.1230
TH2 ROB: 104 LSQ: 63 IQ: 96, IPC: 1.2209
TH3 ROB: 4 LSQ: 3 IQ: 0, IPC: 0.0005
EPOCH ENDS
EPOCH STARTS
TH0 ROB: 4 LSQ: 2 IQ: 0 IPC: 0.0002
TH1 ROB: 4 LSQ: 0 IQ: 0, IPC: 1.1163
TH2 ROB: 104 LSQ: 63 IQ: 96, IPC: 1.2285
TH3 ROB: 4 LSQ: 3 IQ: 0, IPC: 0.0005
EPOCH ENDS
EPOCH STARTS
TH0 ROB: 4 LSQ: 2 IQ: 0 IPC: 0.0002
TH1 ROB: 4 LSQ: 0 IQ: 0, IPC: 1.1097
TH2 ROB: 104 LSQ: 63 IQ: 96, IPC: 1.2360
TH3 ROB: 4 LSQ: 3 IQ: 0, IPC: 0.0005
EPOCH ENDS
EPOCH STARTS
TH0 ROB: 4 LSQ: 2 IQ: 0 IPC: 0.0002
TH1 ROB: 4 LSQ: 0 IQ: 0, IPC: 1.1032
TH2 ROB: 104 LSQ: 63 IQ: 96, IPC: 1.2435
TH3 ROB: 4 LSQ: 3 IQ: 0, IPC: 0.0005
EPOCH ENDS
EPOCH STARTS
TH0 ROB: 4 LSQ: 2 IQ: 0 IPC: 0.0002
TH1 ROB: 4 LSQ: 0 IQ: 0, IPC: 1.0967
TH2 ROB: 104 LSQ: 63 IQ: 96, IPC: 1.2508
TH3 ROB: 4 LSQ: 3 IQ: 0, IPC: 0.0005
EPOCH ENDS
EPOCH STARTS
TH0 ROB: 4 LSQ: 2 IQ: 0 IPC: 0.0002
TH1 ROB: 4 LSQ: 0 IQ: 0, IPC: 1.0903
TH2 ROB: 104 LSQ: 63 IQ: 96, IPC: 1.2581
TH3 ROB: 4 LSQ: 3 IQ: 0, IPC: 0.0005
EPOCH ENDS
EPOCH STARTS
TH0 ROB: 4 LSQ: 2 IQ: 0 IPC: 0.0002
TH1 ROB: 4 LSQ: 0 IQ: 0, IPC: 1.0840
TH2 ROB: 104 LSQ: 63 IQ: 96, IPC: 1.2653
TH3 ROB: 4 LSQ: 3 IQ: 0, IPC: 0.0005
EPOCH ENDS
EPOCH STARTS
TH0 ROB: 4 LSQ: 2 IQ: 0 IPC: 0.0002
TH1 ROB: 4 LSQ: 0 IQ: 0, IPC: 1.0778
TH2 ROB: 104 LSQ: 63 IQ: 96, IPC: 1.2724
TH3 ROB: 4 LSQ: 3 IQ: 0, IPC: 0.0004
EPOCH ENDS
EPOCH STARTS
TH0 ROB: 4 LSQ: 2 IQ: 0 IPC: 0.0002
TH1 ROB: 4 LSQ: 0 IQ: 0, IPC: 1.0716
TH2 ROB: 104 LSQ: 63 IQ: 96, IPC: 1.2794
TH3 ROB: 4 LSQ: 3 IQ: 0, IPC: 0.0004
EPOCH ENDS
EPOCH STARTS
TH0 ROB: 4 LSQ: 2 IQ: 0 IPC: 0.0002
TH1 ROB: 4 LSQ: 0 IQ: 0, IPC: 1.0656
TH2 ROB: 104 LSQ: 63 IQ: 96, IPC: 1.2863
TH3 ROB: 4 LSQ: 3 IQ: 0, IPC: 0.0004
EPOCH ENDS
EPOCH STARTS
TH0 ROB: 4 LSQ: 2 IQ: 0 IPC: 0.0002
TH1 ROB: 4 LSQ: 0 IQ: 0, IPC: 1.0595
TH2 ROB: 104 LSQ: 63 IQ: 96, IPC: 1.2932
TH3 ROB: 4 LSQ: 3 IQ: 0, IPC: 0.0004
EPOCH ENDS
EPOCH STARTS
TH0 ROB: 4 LSQ: 2 IQ: 0 IPC: 0.0002
TH1 ROB: 4 LSQ: 0 IQ: 0, IPC: 1.0536
TH2 ROB: 104 LSQ: 63 IQ: 96, IPC: 1.3000
TH3 ROB: 4 LSQ: 3 IQ: 0, IPC: 0.0004
EPOCH ENDS
EPOCH STARTS
TH0 ROB: 4 LSQ: 2 IQ: 0 IPC: 0.0002
TH1 ROB: 4 LSQ: 0 IQ: 0, IPC: 1.0477
TH2 ROB: 104 LSQ: 63 IQ: 96, IPC: 1.3067
TH3 ROB: 4 LSQ: 3 IQ: 0, IPC: 0.0004
EPOCH ENDS
EPOCH STARTS
TH0 ROB: 4 LSQ: 2 IQ: 0 IPC: 0.0002
TH1 ROB: 4 LSQ: 0 IQ: 0, IPC: 1.0419
TH2 ROB: 104 LSQ: 63 IQ: 96, IPC: 1.3133
TH3 ROB: 4 LSQ: 3 IQ: 0, IPC: 0.0004
EPOCH ENDS
EPOCH STARTS
TH0 ROB: 4 LSQ: 2 IQ: 0 IPC: 0.0002
TH1 ROB: 4 LSQ: 0 IQ: 0, IPC: 1.0361
TH2 ROB: 104 LSQ: 63 IQ: 96, IPC: 1.3198
TH3 ROB: 4 LSQ: 3 IQ: 0, IPC: 0.0004
EPOCH ENDS
EPOCH STARTS
TH0 ROB: 4 LSQ: 2 IQ: 0 IPC: 0.0002
TH1 ROB: 4 LSQ: 0 IQ: 0, IPC: 1.0304
TH2 ROB: 104 LSQ: 63 IQ: 96, IPC: 1.3263
TH3 ROB: 4 LSQ: 3 IQ: 0, IPC: 0.0004
EPOCH ENDS
EPOCH STARTS
TH0 ROB: 4 LSQ: 2 IQ: 0 IPC: 0.0002
TH1 ROB: 4 LSQ: 0 IQ: 0, IPC: 1.0248
TH2 ROB: 104 LSQ: 63 IQ: 96, IPC: 1.3327
TH3 ROB: 4 LSQ: 3 IQ: 0, IPC: 0.0004
EPOCH ENDS
EPOCH STARTS
TH0 ROB: 4 LSQ: 2 IQ: 0 IPC: 0.0002
TH1 ROB: 4 LSQ: 0 IQ: 0, IPC: 1.0192
TH2 ROB: 104 LSQ: 63 IQ: 96, IPC: 1.3391
TH3 ROB: 4 LSQ: 3 IQ: 0, IPC: 0.0004
EPOCH ENDS
EPOCH STARTS
TH0 ROB: 4 LSQ: 2 IQ: 0 IPC: 0.0002
TH1 ROB: 4 LSQ: 0 IQ: 0, IPC: 1.0137
TH2 ROB: 104 LSQ: 63 IQ: 96, IPC: 1.3454
TH3 ROB: 4 LSQ: 3 IQ: 0, IPC: 0.0004
EPOCH ENDS
EPOCH STARTS
TH0 ROB: 4 LSQ: 2 IQ: 0 IPC: 0.0002
TH1 ROB: 4 LSQ: 0 IQ: 0, IPC: 1.0083
TH2 ROB: 104 LSQ: 63 IQ: 96, IPC: 1.3516
TH3 ROB: 4 LSQ: 3 IQ: 0, IPC: 0.0004
EPOCH ENDS
EPOCH STARTS
TH0 ROB: 4 LSQ: 2 IQ: 0 IPC: 0.0002
TH1 ROB: 4 LSQ: 0 IQ: 0, IPC: 1.0029
TH2 ROB: 104 LSQ: 63 IQ: 96, IPC: 1.3577
TH3 ROB: 4 LSQ: 3 IQ: 0, IPC: 0.0004
EPOCH ENDS
EPOCH STARTS
TH0 ROB: 4 LSQ: 2 IQ: 0 IPC: 0.0002
TH1 ROB: 4 LSQ: 0 IQ: 0, IPC: 0.9975
TH2 ROB: 104 LSQ: 63 IQ: 96, IPC: 1.3638
TH3 ROB: 4 LSQ: 3 IQ: 0, IPC: 0.0004
EPOCH ENDS
EPOCH STARTS
TH0 ROB: 4 LSQ: 2 IQ: 0 IPC: 0.0002
TH1 ROB: 4 LSQ: 0 IQ: 0, IPC: 0.9923
TH2 ROB: 104 LSQ: 63 IQ: 96, IPC: 1.3698
TH3 ROB: 4 LSQ: 3 IQ: 0, IPC: 0.0004
EPOCH ENDS
EPOCH STARTS
TH0 ROB: 4 LSQ: 2 IQ: 0 IPC: 0.0002
TH1 ROB: 4 LSQ: 0 IQ: 0, IPC: 0.9870
TH2 ROB: 104 LSQ: 63 IQ: 96, IPC: 1.3757
TH3 ROB: 4 LSQ: 3 IQ: 0, IPC: 0.0004
EPOCH ENDS
EPOCH STARTS
TH0 ROB: 4 LSQ: 2 IQ: 0 IPC: 0.0002
TH1 ROB: 4 LSQ: 0 IQ: 0, IPC: 0.9819
TH2 ROB: 104 LSQ: 63 IQ: 96, IPC: 1.3816
TH3 ROB: 4 LSQ: 3 IQ: 0, IPC: 0.0004
EPOCH ENDS
EPOCH STARTS
TH0 ROB: 4 LSQ: 2 IQ: 0 IPC: 0.0002
TH1 ROB: 4 LSQ: 0 IQ: 0, IPC: 0.9768
TH2 ROB: 104 LSQ: 63 IQ: 96, IPC: 1.3875
TH3 ROB: 4 LSQ: 3 IQ: 0, IPC: 0.0004
EPOCH ENDS
EPOCH STARTS
TH0 ROB: 4 LSQ: 2 IQ: 0 IPC: 0.0002
TH1 ROB: 4 LSQ: 0 IQ: 0, IPC: 0.9717
TH2 ROB: 104 LSQ: 63 IQ: 96, IPC: 1.3932
TH3 ROB: 4 LSQ: 3 IQ: 0, IPC: 0.0004
EPOCH ENDS
EPOCH STARTS
TH0 ROB: 4 LSQ: 2 IQ: 0 IPC: 0.0002
TH1 ROB: 4 LSQ: 0 IQ: 0, IPC: 0.9667
TH2 ROB: 104 LSQ: 63 IQ: 96, IPC: 1.3989
TH3 ROB: 4 LSQ: 3 IQ: 0, IPC: 0.0004
EPOCH ENDS
EPOCH STARTS
TH0 ROB: 4 LSQ: 2 IQ: 0 IPC: 0.0002
TH1 ROB: 4 LSQ: 0 IQ: 0, IPC: 0.9617
TH2 ROB: 104 LSQ: 63 IQ: 96, IPC: 1.4046
TH3 ROB: 4 LSQ: 3 IQ: 0, IPC: 0.0004
EPOCH ENDS
EPOCH STARTS
TH0 ROB: 4 LSQ: 2 IQ: 0 IPC: 0.0002
TH1 ROB: 4 LSQ: 0 IQ: 0, IPC: 0.9568
TH2 ROB: 104 LSQ: 63 IQ: 96, IPC: 1.4102
TH3 ROB: 4 LSQ: 3 IQ: 0, IPC: 0.0004
EPOCH ENDS
EPOCH STARTS
TH0 ROB: 4 LSQ: 2 IQ: 0 IPC: 0.0002
TH1 ROB: 4 LSQ: 0 IQ: 0, IPC: 0.9520
TH2 ROB: 104 LSQ: 63 IQ: 96, IPC: 1.4157
TH3 ROB: 4 LSQ: 3 IQ: 0, IPC: 0.0004
EPOCH ENDS
EPOCH STARTS
TH0 ROB: 4 LSQ: 2 IQ: 0 IPC: 0.0002
TH1 ROB: 4 LSQ: 0 IQ: 0, IPC: 0.9472
TH2 ROB: 104 LSQ: 63 IQ: 96, IPC: 1.4212
TH3 ROB: 4 LSQ: 3 IQ: 0, IPC: 0.0004
EPOCH ENDS
EPOCH STARTS
TH0 ROB: 4 LSQ: 2 IQ: 0 IPC: 0.0002
TH1 ROB: 4 LSQ: 0 IQ: 0, IPC: 0.9424
TH2 ROB: 104 LSQ: 63 IQ: 96, IPC: 1.4266
TH3 ROB: 4 LSQ: 3 IQ: 0, IPC: 0.0004
EPOCH ENDS
EPOCH STARTS
TH0 ROB: 4 LSQ: 2 IQ: 0 IPC: 0.0002
TH1 ROB: 4 LSQ: 0 IQ: 0, IPC: 0.9377
TH2 ROB: 104 LSQ: 63 IQ: 96, IPC: 1.4320
TH3 ROB: 4 LSQ: 3 IQ: 0, IPC: 0.0004
EPOCH ENDS
EPOCH STARTS
TH0 ROB: 4 LSQ: 2 IQ: 0 IPC: 0.0002
TH1 ROB: 4 LSQ: 0 IQ: 0, IPC: 0.9330
TH2 ROB: 104 LSQ: 63 IQ: 96, IPC: 1.4373
TH3 ROB: 4 LSQ: 3 IQ: 0, IPC: 0.0004
EPOCH ENDS
EPOCH STARTS
TH0 ROB: 4 LSQ: 2 IQ: 0 IPC: 0.0002
TH1 ROB: 4 LSQ: 0 IQ: 0, IPC: 0.9284
TH2 ROB: 104 LSQ: 63 IQ: 96, IPC: 1.4425
TH3 ROB: 4 LSQ: 3 IQ: 0, IPC: 0.0004
EPOCH ENDS
EPOCH STARTS
TH0 ROB: 4 LSQ: 2 IQ: 0 IPC: 0.0001
TH1 ROB: 4 LSQ: 0 IQ: 0, IPC: 0.9238
TH2 ROB: 104 LSQ: 63 IQ: 96, IPC: 1.4477
TH3 ROB: 4 LSQ: 3 IQ: 0, IPC: 0.0004
EPOCH ENDS
EPOCH STARTS
TH0 ROB: 4 LSQ: 2 IQ: 0 IPC: 0.0001
TH1 ROB: 4 LSQ: 0 IQ: 0, IPC: 0.9193
TH2 ROB: 104 LSQ: 63 IQ: 96, IPC: 1.4529
TH3 ROB: 4 LSQ: 3 IQ: 0, IPC: 0.0004
EPOCH ENDS
EPOCH STARTS
TH0 ROB: 4 LSQ: 2 IQ: 0 IPC: 0.0001
TH1 ROB: 4 LSQ: 0 IQ: 0, IPC: 0.9148
TH2 ROB: 104 LSQ: 63 IQ: 96, IPC: 1.4580
TH3 ROB: 4 LSQ: 3 IQ: 0, IPC: 0.0004
EPOCH ENDS
EPOCH STARTS
TH0 ROB: 4 LSQ: 2 IQ: 0 IPC: 0.0001
TH1 ROB: 4 LSQ: 0 IQ: 0, IPC: 0.9104
TH2 ROB: 104 LSQ: 63 IQ: 96, IPC: 1.4631
TH3 ROB: 4 LSQ: 3 IQ: 0, IPC: 0.0004
EPOCH ENDS
EPOCH STARTS
TH0 ROB: 4 LSQ: 2 IQ: 0 IPC: 0.0001
TH1 ROB: 4 LSQ: 0 IQ: 0, IPC: 0.9060
TH2 ROB: 104 LSQ: 63 IQ: 96, IPC: 1.4681
TH3 ROB: 4 LSQ: 3 IQ: 0, IPC: 0.0004
EPOCH ENDS
EPOCH STARTS
TH0 ROB: 4 LSQ: 2 IQ: 0 IPC: 0.0001
TH1 ROB: 4 LSQ: 0 IQ: 0, IPC: 0.9016
TH2 ROB: 104 LSQ: 63 IQ: 96, IPC: 1.4730
TH3 ROB: 4 LSQ: 3 IQ: 0, IPC: 0.0004
EPOCH ENDS
EPOCH STARTS
TH0 ROB: 4 LSQ: 2 IQ: 0 IPC: 0.0001
TH1 ROB: 4 LSQ: 0 IQ: 0, IPC: 0.8973
TH2 ROB: 104 LSQ: 63 IQ: 96, IPC: 1.4779
TH3 ROB: 4 LSQ: 3 IQ: 0, IPC: 0.0004
EPOCH ENDS
EPOCH STARTS
TH0 ROB: 4 LSQ: 2 IQ: 0 IPC: 0.0001
TH1 ROB: 4 LSQ: 0 IQ: 0, IPC: 0.8930
TH2 ROB: 104 LSQ: 63 IQ: 96, IPC: 1.4828
TH3 ROB: 4 LSQ: 3 IQ: 0, IPC: 0.0004
EPOCH ENDS
EPOCH STARTS
TH0 ROB: 4 LSQ: 2 IQ: 0 IPC: 0.0001
TH1 ROB: 4 LSQ: 0 IQ: 0, IPC: 0.8888
TH2 ROB: 104 LSQ: 63 IQ: 96, IPC: 1.4876
TH3 ROB: 4 LSQ: 3 IQ: 0, IPC: 0.0004
EPOCH ENDS
EPOCH STARTS
TH0 ROB: 4 LSQ: 2 IQ: 0 IPC: 0.0001
TH1 ROB: 4 LSQ: 0 IQ: 0, IPC: 0.8846
TH2 ROB: 104 LSQ: 63 IQ: 96, IPC: 1.4924
TH3 ROB: 4 LSQ: 3 IQ: 0, IPC: 0.0004
EPOCH ENDS
EPOCH STARTS
TH0 ROB: 4 LSQ: 2 IQ: 0 IPC: 0.0001
TH1 ROB: 4 LSQ: 0 IQ: 0, IPC: 0.8805
TH2 ROB: 104 LSQ: 63 IQ: 96, IPC: 1.4971
TH3 ROB: 4 LSQ: 3 IQ: 0, IPC: 0.0004
EPOCH ENDS
EPOCH STARTS
TH0 ROB: 4 LSQ: 2 IQ: 0 IPC: 0.0001
TH1 ROB: 4 LSQ: 0 IQ: 0, IPC: 0.8763
TH2 ROB: 104 LSQ: 63 IQ: 96, IPC: 1.5018
TH3 ROB: 4 LSQ: 3 IQ: 0, IPC: 0.0004
EPOCH ENDS
EPOCH STARTS
TH0 ROB: 4 LSQ: 2 IQ: 0 IPC: 0.0001
TH1 ROB: 4 LSQ: 0 IQ: 0, IPC: 0.8723
TH2 ROB: 104 LSQ: 63 IQ: 96, IPC: 1.5065
TH3 ROB: 4 LSQ: 3 IQ: 0, IPC: 0.0004
EPOCH ENDS
EPOCH STARTS
TH0 ROB: 4 LSQ: 2 IQ: 0 IPC: 0.0001
TH1 ROB: 4 LSQ: 0 IQ: 0, IPC: 0.8682
TH2 ROB: 104 LSQ: 63 IQ: 96, IPC: 1.5111
TH3 ROB: 4 LSQ: 3 IQ: 0, IPC: 0.0004
EPOCH ENDS
EPOCH STARTS
TH0 ROB: 4 LSQ: 2 IQ: 0 IPC: 0.0001
TH1 ROB: 4 LSQ: 0 IQ: 0, IPC: 0.8642
TH2 ROB: 104 LSQ: 63 IQ: 96, IPC: 1.5156
TH3 ROB: 4 LSQ: 3 IQ: 0, IPC: 0.0004
EPOCH ENDS
EPOCH STARTS
TH0 ROB: 4 LSQ: 2 IQ: 0 IPC: 0.0001
TH1 ROB: 4 LSQ: 0 IQ: 0, IPC: 0.8603
TH2 ROB: 104 LSQ: 63 IQ: 96, IPC: 1.5201
TH3 ROB: 4 LSQ: 3 IQ: 0, IPC: 0.0004
EPOCH ENDS
EPOCH STARTS
TH0 ROB: 4 LSQ: 2 IQ: 0 IPC: 0.0001
TH1 ROB: 4 LSQ: 0 IQ: 0, IPC: 0.8563
TH2 ROB: 104 LSQ: 63 IQ: 96, IPC: 1.5246
TH3 ROB: 4 LSQ: 3 IQ: 0, IPC: 0.0004
EPOCH ENDS
EPOCH STARTS
TH0 ROB: 4 LSQ: 2 IQ: 0 IPC: 0.0001
TH1 ROB: 4 LSQ: 0 IQ: 0, IPC: 0.8524
TH2 ROB: 104 LSQ: 63 IQ: 96, IPC: 1.5291
TH3 ROB: 4 LSQ: 3 IQ: 0, IPC: 0.0004
EPOCH ENDS
EPOCH STARTS
TH0 ROB: 4 LSQ: 2 IQ: 0 IPC: 0.0001
TH1 ROB: 4 LSQ: 0 IQ: 0, IPC: 0.8486
TH2 ROB: 104 LSQ: 63 IQ: 96, IPC: 1.5334
TH3 ROB: 4 LSQ: 3 IQ: 0, IPC: 0.0004
EPOCH ENDS
EPOCH STARTS
TH0 ROB: 4 LSQ: 2 IQ: 0 IPC: 0.0001
TH1 ROB: 4 LSQ: 0 IQ: 0, IPC: 0.8448
TH2 ROB: 104 LSQ: 63 IQ: 96, IPC: 1.5378
TH3 ROB: 4 LSQ: 3 IQ: 0, IPC: 0.0004
EPOCH ENDS
EPOCH STARTS
TH0 ROB: 4 LSQ: 2 IQ: 0 IPC: 0.0001
TH1 ROB: 4 LSQ: 0 IQ: 0, IPC: 0.8410
TH2 ROB: 104 LSQ: 63 IQ: 96, IPC: 1.5421
TH3 ROB: 4 LSQ: 3 IQ: 0, IPC: 0.0004
EPOCH ENDS
EPOCH STARTS
TH0 ROB: 4 LSQ: 2 IQ: 0 IPC: 0.0001
TH1 ROB: 4 LSQ: 0 IQ: 0, IPC: 0.8372
TH2 ROB: 104 LSQ: 63 IQ: 96, IPC: 1.5464
TH3 ROB: 4 LSQ: 3 IQ: 0, IPC: 0.0003
EPOCH ENDS
EPOCH STARTS
TH0 ROB: 4 LSQ: 2 IQ: 0 IPC: 0.0001
TH1 ROB: 4 LSQ: 0 IQ: 0, IPC: 0.8335
TH2 ROB: 104 LSQ: 63 IQ: 96, IPC: 1.5506
TH3 ROB: 4 LSQ: 3 IQ: 0, IPC: 0.0003
EPOCH ENDS
EPOCH STARTS
TH0 ROB: 4 LSQ: 2 IQ: 0 IPC: 0.0001
TH1 ROB: 4 LSQ: 0 IQ: 0, IPC: 0.8298
TH2 ROB: 104 LSQ: 63 IQ: 96, IPC: 1.5548
TH3 ROB: 4 LSQ: 3 IQ: 0, IPC: 0.0003
EPOCH ENDS
EPOCH STARTS
TH0 ROB: 4 LSQ: 2 IQ: 0 IPC: 0.0001
TH1 ROB: 4 LSQ: 0 IQ: 0, IPC: 0.8262
TH2 ROB: 104 LSQ: 63 IQ: 96, IPC: 1.5590
TH3 ROB: 4 LSQ: 3 IQ: 0, IPC: 0.0003
EPOCH ENDS
EPOCH STARTS
TH0 ROB: 4 LSQ: 2 IQ: 0 IPC: 0.0001
TH1 ROB: 4 LSQ: 0 IQ: 0, IPC: 0.8225
TH2 ROB: 104 LSQ: 63 IQ: 96, IPC: 1.5631
TH3 ROB: 4 LSQ: 3 IQ: 0, IPC: 0.0003
EPOCH ENDS
EPOCH STARTS
TH0 ROB: 4 LSQ: 2 IQ: 0 IPC: 0.0001
TH1 ROB: 4 LSQ: 0 IQ: 0, IPC: 0.8189
TH2 ROB: 104 LSQ: 63 IQ: 96, IPC: 1.5672
TH3 ROB: 4 LSQ: 3 IQ: 0, IPC: 0.0003
EPOCH ENDS
EPOCH STARTS
TH0 ROB: 4 LSQ: 2 IQ: 0 IPC: 0.0001
TH1 ROB: 4 LSQ: 0 IQ: 0, IPC: 0.8154
TH2 ROB: 104 LSQ: 63 IQ: 96, IPC: 1.5713
TH3 ROB: 4 LSQ: 3 IQ: 0, IPC: 0.0003
EPOCH ENDS
EPOCH STARTS
TH0 ROB: 4 LSQ: 2 IQ: 0 IPC: 0.0001
TH1 ROB: 4 LSQ: 0 IQ: 0, IPC: 0.8119
TH2 ROB: 104 LSQ: 63 IQ: 96, IPC: 1.5753
TH3 ROB: 4 LSQ: 3 IQ: 0, IPC: 0.0003
EPOCH ENDS
EPOCH STARTS
TH0 ROB: 4 LSQ: 2 IQ: 0 IPC: 0.0001
TH1 ROB: 4 LSQ: 0 IQ: 0, IPC: 0.8084
TH2 ROB: 104 LSQ: 63 IQ: 96, IPC: 1.5793
TH3 ROB: 4 LSQ: 3 IQ: 0, IPC: 0.0003
EPOCH ENDS
EPOCH STARTS
TH0 ROB: 4 LSQ: 2 IQ: 0 IPC: 0.0001
TH1 ROB: 4 LSQ: 0 IQ: 0, IPC: 0.8049
TH2 ROB: 104 LSQ: 63 IQ: 96, IPC: 1.5832
TH3 ROB: 4 LSQ: 3 IQ: 0, IPC: 0.0003
EPOCH ENDS
EPOCH STARTS
TH0 ROB: 4 LSQ: 2 IQ: 0 IPC: 0.0001
TH1 ROB: 4 LSQ: 0 IQ: 0, IPC: 0.8014
TH2 ROB: 104 LSQ: 63 IQ: 96, IPC: 1.5871
TH3 ROB: 4 LSQ: 3 IQ: 0, IPC: 0.0003
EPOCH ENDS
EPOCH STARTS
TH0 ROB: 4 LSQ: 2 IQ: 0 IPC: 0.0001
TH1 ROB: 4 LSQ: 0 IQ: 0, IPC: 0.7980
TH2 ROB: 104 LSQ: 63 IQ: 96, IPC: 1.5910
TH3 ROB: 4 LSQ: 3 IQ: 0, IPC: 0.0003
EPOCH ENDS
EPOCH STARTS
TH0 ROB: 4 LSQ: 2 IQ: 0 IPC: 0.0001
TH1 ROB: 4 LSQ: 0 IQ: 0, IPC: 0.7947
TH2 ROB: 104 LSQ: 63 IQ: 96, IPC: 1.5949
TH3 ROB: 4 LSQ: 3 IQ: 0, IPC: 0.0003
EPOCH ENDS
EPOCH STARTS
TH0 ROB: 4 LSQ: 2 IQ: 0 IPC: 0.0001
TH1 ROB: 4 LSQ: 0 IQ: 0, IPC: 0.7913
TH2 ROB: 104 LSQ: 63 IQ: 96, IPC: 1.5987
TH3 ROB: 4 LSQ: 3 IQ: 0, IPC: 0.0003
EPOCH ENDS
EPOCH STARTS
TH0 ROB: 4 LSQ: 2 IQ: 0 IPC: 0.0001
TH1 ROB: 4 LSQ: 0 IQ: 0, IPC: 0.7880
TH2 ROB: 104 LSQ: 63 IQ: 96, IPC: 1.6025
TH3 ROB: 4 LSQ: 3 IQ: 0, IPC: 0.0003
EPOCH ENDS
EPOCH STARTS
TH0 ROB: 4 LSQ: 2 IQ: 0 IPC: 0.0001
TH1 ROB: 4 LSQ: 0 IQ: 0, IPC: 0.7847
TH2 ROB: 104 LSQ: 63 IQ: 96, IPC: 1.6062
TH3 ROB: 4 LSQ: 3 IQ: 0, IPC: 0.0003
EPOCH ENDS
EPOCH STARTS
TH0 ROB: 4 LSQ: 2 IQ: 0 IPC: 0.0001
TH1 ROB: 4 LSQ: 0 IQ: 0, IPC: 0.7814
TH2 ROB: 104 LSQ: 63 IQ: 96, IPC: 1.6100
TH3 ROB: 4 LSQ: 3 IQ: 0, IPC: 0.0003
EPOCH ENDS
EPOCH STARTS
TH0 ROB: 4 LSQ: 2 IQ: 0 IPC: 0.0001
TH1 ROB: 4 LSQ: 0 IQ: 0, IPC: 0.7782
TH2 ROB: 104 LSQ: 63 IQ: 96, IPC: 1.6137
TH3 ROB: 4 LSQ: 3 IQ: 0, IPC: 0.0003
EPOCH ENDS
EPOCH STARTS
TH0 ROB: 4 LSQ: 2 IQ: 0 IPC: 0.0001
TH1 ROB: 4 LSQ: 0 IQ: 0, IPC: 0.7749
TH2 ROB: 104 LSQ: 63 IQ: 96, IPC: 1.6173
TH3 ROB: 4 LSQ: 3 IQ: 0, IPC: 0.0003
EPOCH ENDS
EPOCH STARTS
TH0 ROB: 4 LSQ: 2 IQ: 0 IPC: 0.0001
TH1 ROB: 4 LSQ: 0 IQ: 0, IPC: 0.7718
TH2 ROB: 104 LSQ: 63 IQ: 96, IPC: 1.6210
TH3 ROB: 4 LSQ: 3 IQ: 0, IPC: 0.0003
EPOCH ENDS
EPOCH STARTS
TH0 ROB: 4 LSQ: 2 IQ: 0 IPC: 0.0001
TH1 ROB: 4 LSQ: 0 IQ: 0, IPC: 0.7686
TH2 ROB: 104 LSQ: 63 IQ: 96, IPC: 1.6246
TH3 ROB: 4 LSQ: 3 IQ: 0, IPC: 0.0003
EPOCH ENDS
EPOCH STARTS
TH0 ROB: 4 LSQ: 2 IQ: 0 IPC: 0.0001
TH1 ROB: 4 LSQ: 0 IQ: 0, IPC: 0.7655
TH2 ROB: 104 LSQ: 63 IQ: 96, IPC: 1.6281
TH3 ROB: 4 LSQ: 3 IQ: 0, IPC: 0.0003
EPOCH ENDS
EPOCH STARTS
TH0 ROB: 4 LSQ: 2 IQ: 0 IPC: 0.0001
TH1 ROB: 4 LSQ: 0 IQ: 0, IPC: 0.7623
TH2 ROB: 104 LSQ: 63 IQ: 96, IPC: 1.6317
TH3 ROB: 4 LSQ: 3 IQ: 0, IPC: 0.0003
EPOCH ENDS
EPOCH STARTS
TH0 ROB: 4 LSQ: 2 IQ: 0 IPC: 0.0001
TH1 ROB: 4 LSQ: 0 IQ: 0, IPC: 0.7593
TH2 ROB: 104 LSQ: 63 IQ: 96, IPC: 1.6352
TH3 ROB: 4 LSQ: 3 IQ: 0, IPC: 0.0003
EPOCH ENDS
EPOCH STARTS
TH0 ROB: 4 LSQ: 2 IQ: 0 IPC: 0.0001
TH1 ROB: 4 LSQ: 0 IQ: 0, IPC: 0.7562
TH2 ROB: 104 LSQ: 63 IQ: 96, IPC: 1.6387
TH3 ROB: 4 LSQ: 3 IQ: 0, IPC: 0.0003
EPOCH ENDS
EPOCH STARTS
TH0 ROB: 4 LSQ: 2 IQ: 0 IPC: 0.0001
TH1 ROB: 4 LSQ: 0 IQ: 0, IPC: 0.7532
TH2 ROB: 104 LSQ: 63 IQ: 96, IPC: 1.6421
TH3 ROB: 4 LSQ: 3 IQ: 0, IPC: 0.0003
EPOCH ENDS
EPOCH STARTS
TH0 ROB: 4 LSQ: 2 IQ: 0 IPC: 0.0001
TH1 ROB: 4 LSQ: 0 IQ: 0, IPC: 0.7502
TH2 ROB: 104 LSQ: 63 IQ: 96, IPC: 1.6456
TH3 ROB: 4 LSQ: 3 IQ: 0, IPC: 0.0003
EPOCH ENDS
EPOCH STARTS
TH0 ROB: 4 LSQ: 2 IQ: 0 IPC: 0.0001
TH1 ROB: 4 LSQ: 0 IQ: 0, IPC: 0.7472
TH2 ROB: 104 LSQ: 63 IQ: 96, IPC: 1.6490
TH3 ROB: 4 LSQ: 3 IQ: 0, IPC: 0.0003
EPOCH ENDS
EPOCH STARTS
TH0 ROB: 4 LSQ: 2 IQ: 0 IPC: 0.0001
TH1 ROB: 4 LSQ: 0 IQ: 0, IPC: 0.7442
TH2 ROB: 104 LSQ: 63 IQ: 96, IPC: 1.6523
TH3 ROB: 4 LSQ: 3 IQ: 0, IPC: 0.0003
EPOCH ENDS
EPOCH STARTS
TH0 ROB: 4 LSQ: 2 IQ: 0 IPC: 0.0001
TH1 ROB: 4 LSQ: 0 IQ: 0, IPC: 0.7413
TH2 ROB: 104 LSQ: 63 IQ: 96, IPC: 1.6557
TH3 ROB: 4 LSQ: 3 IQ: 0, IPC: 0.0003
EPOCH ENDS
EPOCH STARTS
TH0 ROB: 4 LSQ: 2 IQ: 0 IPC: 0.0001
TH1 ROB: 4 LSQ: 0 IQ: 0, IPC: 0.7383
TH2 ROB: 104 LSQ: 63 IQ: 96, IPC: 1.6590
TH3 ROB: 4 LSQ: 3 IQ: 0, IPC: 0.0003
EPOCH ENDS
EPOCH STARTS
TH0 ROB: 4 LSQ: 2 IQ: 0 IPC: 0.0001
TH1 ROB: 4 LSQ: 0 IQ: 0, IPC: 0.7354
TH2 ROB: 104 LSQ: 63 IQ: 96, IPC: 1.6623
TH3 ROB: 4 LSQ: 3 IQ: 0, IPC: 0.0003
EPOCH ENDS
EPOCH STARTS
TH0 ROB: 4 LSQ: 2 IQ: 0 IPC: 0.0001
TH1 ROB: 4 LSQ: 0 IQ: 0, IPC: 0.7326
TH2 ROB: 104 LSQ: 63 IQ: 96, IPC: 1.6656
TH3 ROB: 4 LSQ: 3 IQ: 0, IPC: 0.0003
EPOCH ENDS
EPOCH STARTS
TH0 ROB: 4 LSQ: 2 IQ: 0 IPC: 0.0001
TH1 ROB: 4 LSQ: 0 IQ: 0, IPC: 0.7297
TH2 ROB: 104 LSQ: 63 IQ: 96, IPC: 1.6688
TH3 ROB: 4 LSQ: 3 IQ: 0, IPC: 0.0003
EPOCH ENDS
EPOCH STARTS
TH0 ROB: 4 LSQ: 2 IQ: 0 IPC: 0.0001
TH1 ROB: 4 LSQ: 0 IQ: 0, IPC: 0.7269
TH2 ROB: 104 LSQ: 63 IQ: 96, IPC: 1.6721
TH3 ROB: 4 LSQ: 3 IQ: 0, IPC: 0.0003
EPOCH ENDS
EPOCH STARTS
TH0 ROB: 4 LSQ: 2 IQ: 0 IPC: 0.0001
TH1 ROB: 4 LSQ: 0 IQ: 0, IPC: 0.7241
TH2 ROB: 104 LSQ: 63 IQ: 96, IPC: 1.6753
TH3 ROB: 4 LSQ: 3 IQ: 0, IPC: 0.0003
EPOCH ENDS
EPOCH STARTS
TH0 ROB: 4 LSQ: 2 IQ: 0 IPC: 0.0001
TH1 ROB: 4 LSQ: 0 IQ: 0, IPC: 0.7213
TH2 ROB: 104 LSQ: 63 IQ: 96, IPC: 1.6784
TH3 ROB: 4 LSQ: 3 IQ: 0, IPC: 0.0003
EPOCH ENDS
EPOCH STARTS
TH0 ROB: 4 LSQ: 2 IQ: 0 IPC: 0.0001
TH1 ROB: 4 LSQ: 0 IQ: 0, IPC: 0.7185
TH2 ROB: 104 LSQ: 63 IQ: 96, IPC: 1.6816
TH3 ROB: 4 LSQ: 3 IQ: 0, IPC: 0.0003
EPOCH ENDS
EPOCH STARTS
TH0 ROB: 4 LSQ: 2 IQ: 0 IPC: 0.0001
TH1 ROB: 4 LSQ: 0 IQ: 0, IPC: 0.7158
TH2 ROB: 104 LSQ: 63 IQ: 96, IPC: 1.6847
TH3 ROB: 4 LSQ: 3 IQ: 0, IPC: 0.0003
EPOCH ENDS
EPOCH STARTS
TH0 ROB: 4 LSQ: 2 IQ: 0 IPC: 0.0001
TH1 ROB: 4 LSQ: 0 IQ: 0, IPC: 0.7131
TH2 ROB: 104 LSQ: 63 IQ: 96, IPC: 1.6878
TH3 ROB: 4 LSQ: 3 IQ: 0, IPC: 0.0003
EPOCH ENDS
EPOCH STARTS
TH0 ROB: 4 LSQ: 2 IQ: 0 IPC: 0.0001
TH1 ROB: 4 LSQ: 0 IQ: 0, IPC: 0.7104
TH2 ROB: 104 LSQ: 63 IQ: 96, IPC: 1.6909
TH3 ROB: 4 LSQ: 3 IQ: 0, IPC: 0.0003
EPOCH ENDS
EPOCH STARTS
TH0 ROB: 4 LSQ: 2 IQ: 0 IPC: 0.0001
TH1 ROB: 4 LSQ: 0 IQ: 0, IPC: 0.7077
TH2 ROB: 104 LSQ: 63 IQ: 96, IPC: 1.6939
TH3 ROB: 4 LSQ: 3 IQ: 0, IPC: 0.0003
EPOCH ENDS
EPOCH STARTS
TH0 ROB: 4 LSQ: 2 IQ: 0 IPC: 0.0001
TH1 ROB: 4 LSQ: 0 IQ: 0, IPC: 0.7050
TH2 ROB: 104 LSQ: 63 IQ: 96, IPC: 1.6970
TH3 ROB: 4 LSQ: 3 IQ: 0, IPC: 0.0003
EPOCH ENDS
EPOCH STARTS
TH0 ROB: 4 LSQ: 2 IQ: 0 IPC: 0.0001
TH1 ROB: 4 LSQ: 0 IQ: 0, IPC: 0.7024
TH2 ROB: 104 LSQ: 63 IQ: 96, IPC: 1.7000
TH3 ROB: 4 LSQ: 3 IQ: 0, IPC: 0.0003
EPOCH ENDS
EPOCH STARTS
TH0 ROB: 4 LSQ: 2 IQ: 0 IPC: 0.0001
TH1 ROB: 4 LSQ: 0 IQ: 0, IPC: 0.6998
TH2 ROB: 104 LSQ: 63 IQ: 96, IPC: 1.7030
TH3 ROB: 4 LSQ: 3 IQ: 0, IPC: 0.0003
EPOCH ENDS
EPOCH STARTS
TH0 ROB: 4 LSQ: 2 IQ: 0 IPC: 0.0001
TH1 ROB: 4 LSQ: 0 IQ: 0, IPC: 0.6972
TH2 ROB: 104 LSQ: 63 IQ: 96, IPC: 1.7059
TH3 ROB: 4 LSQ: 3 IQ: 0, IPC: 0.0003
EPOCH ENDS
EPOCH STARTS
TH0 ROB: 4 LSQ: 2 IQ: 0 IPC: 0.0001
TH1 ROB: 4 LSQ: 0 IQ: 0, IPC: 0.6946
TH2 ROB: 104 LSQ: 63 IQ: 96, IPC: 1.7089
TH3 ROB: 4 LSQ: 3 IQ: 0, IPC: 0.0003
EPOCH ENDS
EPOCH STARTS
TH0 ROB: 4 LSQ: 2 IQ: 0 IPC: 0.0001
TH1 ROB: 4 LSQ: 0 IQ: 0, IPC: 0.6920
TH2 ROB: 104 LSQ: 63 IQ: 96, IPC: 1.7118
TH3 ROB: 4 LSQ: 3 IQ: 0, IPC: 0.0003
EPOCH ENDS
EPOCH STARTS
TH0 ROB: 4 LSQ: 2 IQ: 0 IPC: 0.0001
TH1 ROB: 4 LSQ: 0 IQ: 0, IPC: 0.6895
TH2 ROB: 104 LSQ: 63 IQ: 96, IPC: 1.7147
TH3 ROB: 4 LSQ: 3 IQ: 0, IPC: 0.0003
EPOCH ENDS
EPOCH STARTS
TH0 ROB: 4 LSQ: 2 IQ: 0 IPC: 0.0001
TH1 ROB: 4 LSQ: 0 IQ: 0, IPC: 0.6870
TH2 ROB: 104 LSQ: 63 IQ: 96, IPC: 1.7176
TH3 ROB: 4 LSQ: 3 IQ: 0, IPC: 0.0003
EPOCH ENDS
EPOCH STARTS
TH0 ROB: 4 LSQ: 2 IQ: 0 IPC: 0.0001
TH1 ROB: 4 LSQ: 0 IQ: 0, IPC: 0.6844
TH2 ROB: 104 LSQ: 63 IQ: 96, IPC: 1.7204
TH3 ROB: 4 LSQ: 3 IQ: 0, IPC: 0.0003
EPOCH ENDS
EPOCH STARTS
TH0 ROB: 4 LSQ: 2 IQ: 0 IPC: 0.0001
TH1 ROB: 4 LSQ: 0 IQ: 0, IPC: 0.6820
TH2 ROB: 104 LSQ: 63 IQ: 96, IPC: 1.7232
TH3 ROB: 4 LSQ: 3 IQ: 0, IPC: 0.0003
EPOCH ENDS
EPOCH STARTS
TH0 ROB: 4 LSQ: 2 IQ: 0 IPC: 0.0001
TH1 ROB: 4 LSQ: 0 IQ: 0, IPC: 0.6795
TH2 ROB: 104 LSQ: 63 IQ: 96, IPC: 1.7261
TH3 ROB: 4 LSQ: 3 IQ: 0, IPC: 0.0003
EPOCH ENDS
EPOCH STARTS
TH0 ROB: 4 LSQ: 2 IQ: 0 IPC: 0.0001
TH1 ROB: 4 LSQ: 0 IQ: 0, IPC: 0.6770
TH2 ROB: 104 LSQ: 63 IQ: 96, IPC: 1.7289
TH3 ROB: 4 LSQ: 3 IQ: 0, IPC: 0.0003
EPOCH ENDS
EPOCH STARTS
TH0 ROB: 4 LSQ: 2 IQ: 0 IPC: 0.0001
TH1 ROB: 4 LSQ: 0 IQ: 0, IPC: 0.6746
TH2 ROB: 104 LSQ: 63 IQ: 96, IPC: 1.7316
TH3 ROB: 4 LSQ: 3 IQ: 0, IPC: 0.0003
EPOCH ENDS
EPOCH STARTS
TH0 ROB: 4 LSQ: 2 IQ: 0 IPC: 0.0001
TH1 ROB: 4 LSQ: 0 IQ: 0, IPC: 0.6722
TH2 ROB: 104 LSQ: 63 IQ: 96, IPC: 1.7344
TH3 ROB: 4 LSQ: 3 IQ: 0, IPC: 0.0003
EPOCH ENDS
EPOCH STARTS
TH0 ROB: 4 LSQ: 2 IQ: 0 IPC: 0.0001
TH1 ROB: 4 LSQ: 0 IQ: 0, IPC: 0.6698
TH2 ROB: 104 LSQ: 63 IQ: 96, IPC: 1.7371
TH3 ROB: 4 LSQ: 3 IQ: 0, IPC: 0.0003
EPOCH ENDS
EPOCH STARTS
TH0 ROB: 4 LSQ: 2 IQ: 0 IPC: 0.0001
TH1 ROB: 4 LSQ: 0 IQ: 0, IPC: 0.6674
TH2 ROB: 104 LSQ: 63 IQ: 96, IPC: 1.7398
TH3 ROB: 4 LSQ: 3 IQ: 0, IPC: 0.0003
EPOCH ENDS
EPOCH STARTS
TH0 ROB: 4 LSQ: 2 IQ: 0 IPC: 0.0001
TH1 ROB: 4 LSQ: 0 IQ: 0, IPC: 0.6650
TH2 ROB: 104 LSQ: 63 IQ: 96, IPC: 1.7425
TH3 ROB: 4 LSQ: 3 IQ: 0, IPC: 0.0003
EPOCH ENDS
EPOCH STARTS
TH0 ROB: 4 LSQ: 2 IQ: 0 IPC: 0.0001
TH1 ROB: 4 LSQ: 0 IQ: 0, IPC: 0.6627
TH2 ROB: 104 LSQ: 63 IQ: 96, IPC: 1.7452
TH3 ROB: 4 LSQ: 3 IQ: 0, IPC: 0.0003
EPOCH ENDS
EPOCH STARTS
TH0 ROB: 4 LSQ: 2 IQ: 0 IPC: 0.0001
TH1 ROB: 4 LSQ: 0 IQ: 0, IPC: 0.6603
TH2 ROB: 104 LSQ: 63 IQ: 96, IPC: 1.7479
TH3 ROB: 4 LSQ: 3 IQ: 0, IPC: 0.0003
EPOCH ENDS
EPOCH STARTS
TH0 ROB: 4 LSQ: 2 IQ: 0 IPC: 0.0001
TH1 ROB: 4 LSQ: 0 IQ: 0, IPC: 0.6580
TH2 ROB: 104 LSQ: 63 IQ: 96, IPC: 1.7505
TH3 ROB: 4 LSQ: 3 IQ: 0, IPC: 0.0003
EPOCH ENDS
EPOCH STARTS
TH0 ROB: 4 LSQ: 2 IQ: 0 IPC: 0.0001
TH1 ROB: 4 LSQ: 0 IQ: 0, IPC: 0.6557
TH2 ROB: 104 LSQ: 63 IQ: 96, IPC: 1.7531
TH3 ROB: 4 LSQ: 3 IQ: 0, IPC: 0.0003
EPOCH ENDS
EPOCH STARTS
TH0 ROB: 4 LSQ: 2 IQ: 0 IPC: 0.0001
TH1 ROB: 4 LSQ: 0 IQ: 0, IPC: 0.6534
TH2 ROB: 104 LSQ: 63 IQ: 96, IPC: 1.7557
TH3 ROB: 4 LSQ: 3 IQ: 0, IPC: 0.0003
EPOCH ENDS
EPOCH STARTS
TH0 ROB: 4 LSQ: 2 IQ: 0 IPC: 0.0001
TH1 ROB: 4 LSQ: 0 IQ: 0, IPC: 0.6512
TH2 ROB: 104 LSQ: 63 IQ: 96, IPC: 1.7583
TH3 ROB: 4 LSQ: 3 IQ: 0, IPC: 0.0003
EPOCH ENDS
EPOCH STARTS
TH0 ROB: 4 LSQ: 2 IQ: 0 IPC: 0.0001
TH1 ROB: 4 LSQ: 0 IQ: 0, IPC: 0.6489
TH2 ROB: 104 LSQ: 63 IQ: 96, IPC: 1.7609
TH3 ROB: 4 LSQ: 3 IQ: 0, IPC: 0.0003
EPOCH ENDS
EPOCH STARTS
TH0 ROB: 4 LSQ: 2 IQ: 0 IPC: 0.0001
TH1 ROB: 4 LSQ: 0 IQ: 0, IPC: 0.6467
TH2 ROB: 104 LSQ: 63 IQ: 96, IPC: 1.7634
TH3 ROB: 4 LSQ: 3 IQ: 0, IPC: 0.0003
EPOCH ENDS
EPOCH STARTS
TH0 ROB: 4 LSQ: 2 IQ: 0 IPC: 0.0001
TH1 ROB: 4 LSQ: 0 IQ: 0, IPC: 0.6445
TH2 ROB: 104 LSQ: 63 IQ: 96, IPC: 1.7660
TH3 ROB: 4 LSQ: 3 IQ: 0, IPC: 0.0003
EPOCH ENDS
EPOCH STARTS
TH0 ROB: 4 LSQ: 2 IQ: 0 IPC: 0.0001
TH1 ROB: 4 LSQ: 0 IQ: 0, IPC: 0.6423
TH2 ROB: 104 LSQ: 63 IQ: 96, IPC: 1.7685
TH3 ROB: 4 LSQ: 3 IQ: 0, IPC: 0.0003
EPOCH ENDS
EPOCH STARTS
TH0 ROB: 4 LSQ: 2 IQ: 0 IPC: 0.0001
TH1 ROB: 4 LSQ: 0 IQ: 0, IPC: 0.6401
TH2 ROB: 104 LSQ: 63 IQ: 96, IPC: 1.7710
TH3 ROB: 4 LSQ: 3 IQ: 0, IPC: 0.0003
EPOCH ENDS
EPOCH STARTS
TH0 ROB: 4 LSQ: 2 IQ: 0 IPC: 0.0001
TH1 ROB: 4 LSQ: 0 IQ: 0, IPC: 0.6379
TH2 ROB: 104 LSQ: 63 IQ: 96, IPC: 1.7734
TH3 ROB: 4 LSQ: 3 IQ: 0, IPC: 0.0003
EPOCH ENDS
EPOCH STARTS
TH0 ROB: 4 LSQ: 2 IQ: 0 IPC: 0.0001
TH1 ROB: 4 LSQ: 0 IQ: 0, IPC: 0.6357
TH2 ROB: 104 LSQ: 63 IQ: 96, IPC: 1.7759
TH3 ROB: 4 LSQ: 3 IQ: 0, IPC: 0.0003
EPOCH ENDS
EPOCH STARTS
TH0 ROB: 4 LSQ: 2 IQ: 0 IPC: 0.0001
TH1 ROB: 4 LSQ: 0 IQ: 0, IPC: 0.6336
TH2 ROB: 104 LSQ: 63 IQ: 96, IPC: 1.7783
TH3 ROB: 4 LSQ: 3 IQ: 0, IPC: 0.0003
EPOCH ENDS
EPOCH STARTS
TH0 ROB: 4 LSQ: 2 IQ: 0 IPC: 0.0001
TH1 ROB: 4 LSQ: 0 IQ: 0, IPC: 0.6314
TH2 ROB: 104 LSQ: 63 IQ: 96, IPC: 1.7808
TH3 ROB: 4 LSQ: 3 IQ: 0, IPC: 0.0003
EPOCH ENDS
EPOCH STARTS
TH0 ROB: 4 LSQ: 2 IQ: 0 IPC: 0.0001
TH1 ROB: 4 LSQ: 0 IQ: 0, IPC: 0.6293
TH2 ROB: 104 LSQ: 63 IQ: 96, IPC: 1.7832
TH3 ROB: 4 LSQ: 3 IQ: 0, IPC: 0.0003
EPOCH ENDS
EPOCH STARTS
TH0 ROB: 4 LSQ: 2 IQ: 0 IPC: 0.0001
TH1 ROB: 4 LSQ: 0 IQ: 0, IPC: 0.6272
TH2 ROB: 104 LSQ: 63 IQ: 96, IPC: 1.7856
TH3 ROB: 4 LSQ: 3 IQ: 0, IPC: 0.0003
EPOCH ENDS
EPOCH STARTS
TH0 ROB: 4 LSQ: 2 IQ: 0 IPC: 0.0001
TH1 ROB: 4 LSQ: 0 IQ: 0, IPC: 0.6251
TH2 ROB: 104 LSQ: 63 IQ: 96, IPC: 1.7880
TH3 ROB: 4 LSQ: 3 IQ: 0, IPC: 0.0003
EPOCH ENDS
EPOCH STARTS
TH0 ROB: 4 LSQ: 2 IQ: 0 IPC: 0.0001
TH1 ROB: 4 LSQ: 0 IQ: 0, IPC: 0.6230
TH2 ROB: 104 LSQ: 63 IQ: 96, IPC: 1.7903
TH3 ROB: 4 LSQ: 3 IQ: 0, IPC: 0.0003
EPOCH ENDS
EPOCH STARTS
TH0 ROB: 4 LSQ: 2 IQ: 0 IPC: 0.0001
TH1 ROB: 4 LSQ: 0 IQ: 0, IPC: 0.6210
TH2 ROB: 104 LSQ: 63 IQ: 96, IPC: 1.7927
TH3 ROB: 4 LSQ: 3 IQ: 0, IPC: 0.0003
EPOCH ENDS
EPOCH STARTS
TH0 ROB: 4 LSQ: 2 IQ: 0 IPC: 0.0001
TH1 ROB: 4 LSQ: 0 IQ: 0, IPC: 0.6189
TH2 ROB: 104 LSQ: 63 IQ: 96, IPC: 1.7950
TH3 ROB: 4 LSQ: 3 IQ: 0, IPC: 0.0003
EPOCH ENDS
EPOCH STARTS
TH0 ROB: 4 LSQ: 2 IQ: 0 IPC: 0.0001
TH1 ROB: 4 LSQ: 0 IQ: 0, IPC: 0.6169
TH2 ROB: 104 LSQ: 63 IQ: 96, IPC: 1.7973
TH3 ROB: 4 LSQ: 3 IQ: 0, IPC: 0.0003
EPOCH ENDS
EPOCH STARTS
TH0 ROB: 4 LSQ: 2 IQ: 0 IPC: 0.0001
TH1 ROB: 4 LSQ: 0 IQ: 0, IPC: 0.6149
TH2 ROB: 104 LSQ: 63 IQ: 96, IPC: 1.7996
TH3 ROB: 4 LSQ: 3 IQ: 0, IPC: 0.0003
EPOCH ENDS
EPOCH STARTS
TH0 ROB: 4 LSQ: 2 IQ: 0 IPC: 0.0001
TH1 ROB: 4 LSQ: 0 IQ: 0, IPC: 0.6129
TH2 ROB: 104 LSQ: 63 IQ: 96, IPC: 1.8019
TH3 ROB: 4 LSQ: 3 IQ: 0, IPC: 0.0003
EPOCH ENDS
EPOCH STARTS
TH0 ROB: 4 LSQ: 2 IQ: 0 IPC: 0.0001
TH1 ROB: 4 LSQ: 0 IQ: 0, IPC: 0.6109
TH2 ROB: 104 LSQ: 63 IQ: 96, IPC: 1.8042
TH3 ROB: 4 LSQ: 3 IQ: 0, IPC: 0.0003
EPOCH ENDS
EPOCH STARTS
TH0 ROB: 4 LSQ: 2 IQ: 0 IPC: 0.0001
TH1 ROB: 4 LSQ: 0 IQ: 0, IPC: 0.6089
TH2 ROB: 104 LSQ: 63 IQ: 96, IPC: 1.8065
TH3 ROB: 4 LSQ: 3 IQ: 0, IPC: 0.0003
EPOCH ENDS
EPOCH STARTS
TH0 ROB: 4 LSQ: 2 IQ: 0 IPC: 0.0001
TH1 ROB: 4 LSQ: 0 IQ: 0, IPC: 0.6069
TH2 ROB: 104 LSQ: 63 IQ: 96, IPC: 1.8087
TH3 ROB: 4 LSQ: 3 IQ: 0, IPC: 0.0003
EPOCH ENDS
EPOCH STARTS
TH0 ROB: 4 LSQ: 2 IQ: 0 IPC: 0.0001
TH1 ROB: 4 LSQ: 0 IQ: 0, IPC: 0.6050
TH2 ROB: 104 LSQ: 63 IQ: 96, IPC: 1.8109
TH3 ROB: 4 LSQ: 3 IQ: 0, IPC: 0.0003
EPOCH ENDS
EPOCH STARTS
TH0 ROB: 4 LSQ: 2 IQ: 0 IPC: 0.0001
TH1 ROB: 4 LSQ: 0 IQ: 0, IPC: 0.6030
TH2 ROB: 104 LSQ: 63 IQ: 96, IPC: 1.8132
TH3 ROB: 4 LSQ: 3 IQ: 0, IPC: 0.0003
EPOCH ENDS
EPOCH STARTS
TH0 ROB: 4 LSQ: 2 IQ: 0 IPC: 0.0001
TH1 ROB: 4 LSQ: 0 IQ: 0, IPC: 0.6011
TH2 ROB: 104 LSQ: 63 IQ: 96, IPC: 1.8154
TH3 ROB: 4 LSQ: 3 IQ: 0, IPC: 0.0003
EPOCH ENDS
EPOCH STARTS
TH0 ROB: 4 LSQ: 2 IQ: 0 IPC: 0.0001
TH1 ROB: 4 LSQ: 0 IQ: 0, IPC: 0.5992
TH2 ROB: 104 LSQ: 63 IQ: 96, IPC: 1.8175
TH3 ROB: 4 LSQ: 3 IQ: 0, IPC: 0.0002
EPOCH ENDS
EPOCH STARTS
TH0 ROB: 4 LSQ: 2 IQ: 0 IPC: 0.0001
TH1 ROB: 4 LSQ: 0 IQ: 0, IPC: 0.5973
TH2 ROB: 104 LSQ: 63 IQ: 96, IPC: 1.8197
TH3 ROB: 4 LSQ: 3 IQ: 0, IPC: 0.0002
EPOCH ENDS
EPOCH STARTS
TH0 ROB: 4 LSQ: 2 IQ: 0 IPC: 0.0001
TH1 ROB: 4 LSQ: 0 IQ: 0, IPC: 0.5954
TH2 ROB: 104 LSQ: 63 IQ: 96, IPC: 1.8219
TH3 ROB: 4 LSQ: 3 IQ: 0, IPC: 0.0002
EPOCH ENDS
EPOCH STARTS
TH0 ROB: 4 LSQ: 2 IQ: 0 IPC: 0.0001
TH1 ROB: 4 LSQ: 0 IQ: 0, IPC: 0.5935
TH2 ROB: 104 LSQ: 63 IQ: 96, IPC: 1.8240
TH3 ROB: 4 LSQ: 3 IQ: 0, IPC: 0.0002
EPOCH ENDS
EPOCH STARTS
TH0 ROB: 4 LSQ: 2 IQ: 0 IPC: 0.0001
TH1 ROB: 4 LSQ: 0 IQ: 0, IPC: 0.5916
TH2 ROB: 104 LSQ: 63 IQ: 96, IPC: 1.8262
TH3 ROB: 4 LSQ: 3 IQ: 0, IPC: 0.0002
EPOCH ENDS
EPOCH STARTS
TH0 ROB: 4 LSQ: 2 IQ: 0 IPC: 0.0001
TH1 ROB: 4 LSQ: 0 IQ: 0, IPC: 0.5897
TH2 ROB: 104 LSQ: 63 IQ: 96, IPC: 1.8283
TH3 ROB: 4 LSQ: 3 IQ: 0, IPC: 0.0002
EPOCH ENDS
EPOCH STARTS
TH0 ROB: 4 LSQ: 2 IQ: 0 IPC: 0.0001
TH1 ROB: 4 LSQ: 0 IQ: 0, IPC: 0.5879
TH2 ROB: 104 LSQ: 63 IQ: 96, IPC: 1.8304
TH3 ROB: 4 LSQ: 3 IQ: 0, IPC: 0.0002
EPOCH ENDS
EPOCH STARTS
TH0 ROB: 4 LSQ: 2 IQ: 0 IPC: 0.0001
TH1 ROB: 4 LSQ: 0 IQ: 0, IPC: 0.5861
TH2 ROB: 104 LSQ: 63 IQ: 96, IPC: 1.8325
TH3 ROB: 4 LSQ: 3 IQ: 0, IPC: 0.0002
EPOCH ENDS
EPOCH STARTS
TH0 ROB: 4 LSQ: 2 IQ: 0 IPC: 0.0001
TH1 ROB: 4 LSQ: 0 IQ: 0, IPC: 0.5842
TH2 ROB: 104 LSQ: 63 IQ: 96, IPC: 1.8346
TH3 ROB: 4 LSQ: 3 IQ: 0, IPC: 0.0002
EPOCH ENDS
EPOCH STARTS
TH0 ROB: 4 LSQ: 2 IQ: 0 IPC: 0.0001
TH1 ROB: 4 LSQ: 0 IQ: 0, IPC: 0.5824
TH2 ROB: 104 LSQ: 63 IQ: 96, IPC: 1.8366
TH3 ROB: 4 LSQ: 3 IQ: 0, IPC: 0.0002
EPOCH ENDS
EPOCH STARTS
TH0 ROB: 4 LSQ: 2 IQ: 0 IPC: 0.0001
TH1 ROB: 4 LSQ: 0 IQ: 0, IPC: 0.5806
TH2 ROB: 104 LSQ: 63 IQ: 96, IPC: 1.8387
TH3 ROB: 4 LSQ: 3 IQ: 0, IPC: 0.0002
EPOCH ENDS
EPOCH STARTS
TH0 ROB: 4 LSQ: 2 IQ: 0 IPC: 0.0001
TH1 ROB: 4 LSQ: 0 IQ: 0, IPC: 0.5788
TH2 ROB: 104 LSQ: 63 IQ: 96, IPC: 1.8407
TH3 ROB: 4 LSQ: 3 IQ: 0, IPC: 0.0002
EPOCH ENDS
EPOCH STARTS
TH0 ROB: 4 LSQ: 2 IQ: 0 IPC: 0.0001
TH1 ROB: 4 LSQ: 0 IQ: 0, IPC: 0.5770
TH2 ROB: 104 LSQ: 63 IQ: 96, IPC: 1.8427
TH3 ROB: 4 LSQ: 3 IQ: 0, IPC: 0.0002
EPOCH ENDS
EPOCH STARTS
TH0 ROB: 4 LSQ: 2 IQ: 0 IPC: 0.0001
TH1 ROB: 4 LSQ: 0 IQ: 0, IPC: 0.5753
TH2 ROB: 104 LSQ: 63 IQ: 96, IPC: 1.8448
TH3 ROB: 4 LSQ: 3 IQ: 0, IPC: 0.0002
EPOCH ENDS
EPOCH STARTS
TH0 ROB: 4 LSQ: 2 IQ: 0 IPC: 0.0001
TH1 ROB: 4 LSQ: 0 IQ: 0, IPC: 0.5735
TH2 ROB: 104 LSQ: 63 IQ: 96, IPC: 1.8468
TH3 ROB: 4 LSQ: 3 IQ: 0, IPC: 0.0002
EPOCH ENDS
EPOCH STARTS
TH0 ROB: 4 LSQ: 2 IQ: 0 IPC: 0.0001
TH1 ROB: 4 LSQ: 0 IQ: 0, IPC: 0.5718
TH2 ROB: 104 LSQ: 63 IQ: 96, IPC: 1.8488
TH3 ROB: 4 LSQ: 3 IQ: 0, IPC: 0.0002
EPOCH ENDS
EPOCH STARTS
TH0 ROB: 4 LSQ: 2 IQ: 0 IPC: 0.0001
TH1 ROB: 4 LSQ: 0 IQ: 0, IPC: 0.5700
TH2 ROB: 104 LSQ: 63 IQ: 96, IPC: 1.8507
TH3 ROB: 4 LSQ: 3 IQ: 0, IPC: 0.0002
EPOCH ENDS
EPOCH STARTS
TH0 ROB: 4 LSQ: 2 IQ: 0 IPC: 0.0001
TH1 ROB: 4 LSQ: 0 IQ: 0, IPC: 0.5683
TH2 ROB: 104 LSQ: 63 IQ: 96, IPC: 1.8527
TH3 ROB: 4 LSQ: 3 IQ: 0, IPC: 0.0002
EPOCH ENDS
EPOCH STARTS
TH0 ROB: 4 LSQ: 2 IQ: 0 IPC: 0.0001
TH1 ROB: 4 LSQ: 0 IQ: 0, IPC: 0.5666
TH2 ROB: 104 LSQ: 63 IQ: 96, IPC: 1.8547
TH3 ROB: 4 LSQ: 3 IQ: 0, IPC: 0.0002
EPOCH ENDS
EPOCH STARTS
TH0 ROB: 4 LSQ: 2 IQ: 0 IPC: 0.0001
TH1 ROB: 4 LSQ: 0 IQ: 0, IPC: 0.5649
TH2 ROB: 104 LSQ: 63 IQ: 96, IPC: 1.8566
TH3 ROB: 4 LSQ: 3 IQ: 0, IPC: 0.0002
EPOCH ENDS
EPOCH STARTS
TH0 ROB: 4 LSQ: 2 IQ: 0 IPC: 0.0001
TH1 ROB: 4 LSQ: 0 IQ: 0, IPC: 0.5632
TH2 ROB: 104 LSQ: 63 IQ: 96, IPC: 1.8585
TH3 ROB: 4 LSQ: 3 IQ: 0, IPC: 0.0002
EPOCH ENDS
EPOCH STARTS
TH0 ROB: 4 LSQ: 2 IQ: 0 IPC: 0.0001
TH1 ROB: 4 LSQ: 0 IQ: 0, IPC: 0.5615
TH2 ROB: 104 LSQ: 63 IQ: 96, IPC: 1.8605
TH3 ROB: 4 LSQ: 3 IQ: 0, IPC: 0.0002
EPOCH ENDS
EPOCH STARTS
TH0 ROB: 4 LSQ: 2 IQ: 0 IPC: 0.0001
TH1 ROB: 4 LSQ: 0 IQ: 0, IPC: 0.5598
TH2 ROB: 104 LSQ: 63 IQ: 96, IPC: 1.8624
TH3 ROB: 4 LSQ: 3 IQ: 0, IPC: 0.0002
EPOCH ENDS
EPOCH STARTS
TH0 ROB: 4 LSQ: 2 IQ: 0 IPC: 0.0001
TH1 ROB: 4 LSQ: 0 IQ: 0, IPC: 0.5581
TH2 ROB: 104 LSQ: 63 IQ: 96, IPC: 1.8643
TH3 ROB: 4 LSQ: 3 IQ: 0, IPC: 0.0002
EPOCH ENDS
EPOCH STARTS
TH0 ROB: 4 LSQ: 2 IQ: 0 IPC: 0.0001
TH1 ROB: 4 LSQ: 0 IQ: 0, IPC: 0.5565
TH2 ROB: 104 LSQ: 63 IQ: 96, IPC: 1.8661
TH3 ROB: 4 LSQ: 3 IQ: 0, IPC: 0.0002
EPOCH ENDS
EPOCH STARTS
TH0 ROB: 4 LSQ: 2 IQ: 0 IPC: 0.0001
TH1 ROB: 4 LSQ: 0 IQ: 0, IPC: 0.5548
TH2 ROB: 104 LSQ: 63 IQ: 96, IPC: 1.8680
TH3 ROB: 4 LSQ: 3 IQ: 0, IPC: 0.0002
EPOCH ENDS
EPOCH STARTS
TH0 ROB: 4 LSQ: 2 IQ: 0 IPC: 0.0001
TH1 ROB: 4 LSQ: 0 IQ: 0, IPC: 0.5532
TH2 ROB: 104 LSQ: 63 IQ: 96, IPC: 1.8699
TH3 ROB: 4 LSQ: 3 IQ: 0, IPC: 0.0002
EPOCH ENDS
EPOCH STARTS
TH0 ROB: 4 LSQ: 2 IQ: 0 IPC: 0.0001
TH1 ROB: 4 LSQ: 0 IQ: 0, IPC: 0.5516
TH2 ROB: 104 LSQ: 63 IQ: 96, IPC: 1.8717
TH3 ROB: 4 LSQ: 3 IQ: 0, IPC: 0.0002
EPOCH ENDS
EPOCH STARTS
TH0 ROB: 4 LSQ: 2 IQ: 0 IPC: 0.0001
TH1 ROB: 4 LSQ: 0 IQ: 0, IPC: 0.5500
TH2 ROB: 104 LSQ: 63 IQ: 96, IPC: 1.8736
TH3 ROB: 4 LSQ: 3 IQ: 0, IPC: 0.0002
EPOCH ENDS
EPOCH STARTS
TH0 ROB: 4 LSQ: 2 IQ: 0 IPC: 0.0001
TH1 ROB: 4 LSQ: 0 IQ: 0, IPC: 0.5484
TH2 ROB: 104 LSQ: 63 IQ: 96, IPC: 1.8754
TH3 ROB: 4 LSQ: 3 IQ: 0, IPC: 0.0002
EPOCH ENDS
EPOCH STARTS
TH0 ROB: 4 LSQ: 2 IQ: 0 IPC: 0.0001
TH1 ROB: 4 LSQ: 0 IQ: 0, IPC: 0.5468
TH2 ROB: 104 LSQ: 63 IQ: 96, IPC: 1.8772
TH3 ROB: 4 LSQ: 3 IQ: 0, IPC: 0.0002
EPOCH ENDS
EPOCH STARTS
TH0 ROB: 4 LSQ: 2 IQ: 0 IPC: 0.0001
TH1 ROB: 4 LSQ: 0 IQ: 0, IPC: 0.5452
TH2 ROB: 104 LSQ: 63 IQ: 96, IPC: 1.8790
TH3 ROB: 4 LSQ: 3 IQ: 0, IPC: 0.0002
EPOCH ENDS
EPOCH STARTS
TH0 ROB: 4 LSQ: 2 IQ: 0 IPC: 0.0001
TH1 ROB: 4 LSQ: 0 IQ: 0, IPC: 0.5436
TH2 ROB: 104 LSQ: 63 IQ: 96, IPC: 1.8808
TH3 ROB: 4 LSQ: 3 IQ: 0, IPC: 0.0002
EPOCH ENDS
EPOCH STARTS
TH0 ROB: 4 LSQ: 2 IQ: 0 IPC: 0.0001
TH1 ROB: 4 LSQ: 0 IQ: 0, IPC: 0.5420
TH2 ROB: 104 LSQ: 63 IQ: 96, IPC: 1.8826
TH3 ROB: 4 LSQ: 3 IQ: 0, IPC: 0.0002
EPOCH ENDS
EPOCH STARTS
TH0 ROB: 4 LSQ: 2 IQ: 0 IPC: 0.0001
TH1 ROB: 4 LSQ: 0 IQ: 0, IPC: 0.5405
TH2 ROB: 104 LSQ: 63 IQ: 96, IPC: 1.8844
TH3 ROB: 4 LSQ: 3 IQ: 0, IPC: 0.0002
EPOCH ENDS
EPOCH STARTS
TH0 ROB: 4 LSQ: 2 IQ: 0 IPC: 0.0001
TH1 ROB: 4 LSQ: 0 IQ: 0, IPC: 0.5389
TH2 ROB: 104 LSQ: 63 IQ: 96, IPC: 1.8862
TH3 ROB: 4 LSQ: 3 IQ: 0, IPC: 0.0002
EPOCH ENDS
EPOCH STARTS
TH0 ROB: 4 LSQ: 2 IQ: 0 IPC: 0.0001
TH1 ROB: 4 LSQ: 0 IQ: 0, IPC: 0.5374
TH2 ROB: 104 LSQ: 63 IQ: 96, IPC: 1.8879
TH3 ROB: 4 LSQ: 3 IQ: 0, IPC: 0.0002
EPOCH ENDS
EPOCH STARTS
TH0 ROB: 4 LSQ: 2 IQ: 0 IPC: 0.0001
TH1 ROB: 4 LSQ: 0 IQ: 0, IPC: 0.5358
TH2 ROB: 104 LSQ: 63 IQ: 96, IPC: 1.8897
TH3 ROB: 4 LSQ: 3 IQ: 0, IPC: 0.0002
EPOCH ENDS
EPOCH STARTS
TH0 ROB: 4 LSQ: 2 IQ: 0 IPC: 0.0001
TH1 ROB: 4 LSQ: 0 IQ: 0, IPC: 0.5343
TH2 ROB: 104 LSQ: 63 IQ: 96, IPC: 1.8914
TH3 ROB: 4 LSQ: 3 IQ: 0, IPC: 0.0002
EPOCH ENDS
EPOCH STARTS
TH0 ROB: 4 LSQ: 2 IQ: 0 IPC: 0.0001
TH1 ROB: 4 LSQ: 0 IQ: 0, IPC: 0.5328
TH2 ROB: 104 LSQ: 63 IQ: 96, IPC: 1.8932
TH3 ROB: 4 LSQ: 3 IQ: 0, IPC: 0.0002
EPOCH ENDS
EPOCH STARTS
TH0 ROB: 4 LSQ: 2 IQ: 0 IPC: 0.0001
TH1 ROB: 4 LSQ: 0 IQ: 0, IPC: 0.5313
TH2 ROB: 104 LSQ: 63 IQ: 96, IPC: 1.8949
TH3 ROB: 4 LSQ: 3 IQ: 0, IPC: 0.0002
EPOCH ENDS
EPOCH STARTS
TH0 ROB: 4 LSQ: 2 IQ: 0 IPC: 0.0001
TH1 ROB: 4 LSQ: 0 IQ: 0, IPC: 0.5298
TH2 ROB: 104 LSQ: 63 IQ: 96, IPC: 1.8966
TH3 ROB: 4 LSQ: 3 IQ: 0, IPC: 0.0002
EPOCH ENDS
EPOCH STARTS
TH0 ROB: 4 LSQ: 2 IQ: 0 IPC: 0.0001
TH1 ROB: 4 LSQ: 0 IQ: 0, IPC: 0.5283
TH2 ROB: 104 LSQ: 63 IQ: 96, IPC: 1.8983
TH3 ROB: 4 LSQ: 3 IQ: 0, IPC: 0.0002
EPOCH ENDS
EPOCH STARTS
TH0 ROB: 4 LSQ: 2 IQ: 0 IPC: 0.0001
TH1 ROB: 4 LSQ: 0 IQ: 0, IPC: 0.5268
TH2 ROB: 104 LSQ: 63 IQ: 96, IPC: 1.9000
TH3 ROB: 4 LSQ: 3 IQ: 0, IPC: 0.0002
EPOCH ENDS
EPOCH STARTS
TH0 ROB: 4 LSQ: 2 IQ: 0 IPC: 0.0001
TH1 ROB: 4 LSQ: 0 IQ: 0, IPC: 0.5253
TH2 ROB: 104 LSQ: 63 IQ: 96, IPC: 1.9017
TH3 ROB: 4 LSQ: 3 IQ: 0, IPC: 0.0002
EPOCH ENDS
EPOCH STARTS
TH0 ROB: 4 LSQ: 2 IQ: 0 IPC: 0.0001
TH1 ROB: 4 LSQ: 0 IQ: 0, IPC: 0.5238
TH2 ROB: 104 LSQ: 63 IQ: 96, IPC: 1.9033
TH3 ROB: 4 LSQ: 3 IQ: 0, IPC: 0.0002
EPOCH ENDS
EPOCH STARTS
TH0 ROB: 4 LSQ: 2 IQ: 0 IPC: 0.0001
TH1 ROB: 4 LSQ: 0 IQ: 0, IPC: 0.5224
TH2 ROB: 104 LSQ: 63 IQ: 96, IPC: 1.9050
TH3 ROB: 4 LSQ: 3 IQ: 0, IPC: 0.0002
EPOCH ENDS
EPOCH STARTS
TH0 ROB: 4 LSQ: 2 IQ: 0 IPC: 0.0001
TH1 ROB: 4 LSQ: 0 IQ: 0, IPC: 0.5209
TH2 ROB: 104 LSQ: 63 IQ: 96, IPC: 1.9066
TH3 ROB: 4 LSQ: 3 IQ: 0, IPC: 0.0002
EPOCH ENDS
EPOCH STARTS
TH0 ROB: 4 LSQ: 2 IQ: 0 IPC: 0.0001
TH1 ROB: 4 LSQ: 0 IQ: 0, IPC: 0.5195
TH2 ROB: 104 LSQ: 63 IQ: 96, IPC: 1.9083
TH3 ROB: 4 LSQ: 3 IQ: 0, IPC: 0.0002
EPOCH ENDS
EPOCH STARTS
TH0 ROB: 4 LSQ: 2 IQ: 0 IPC: 0.0001
TH1 ROB: 4 LSQ: 0 IQ: 0, IPC: 0.5181
TH2 ROB: 104 LSQ: 63 IQ: 96, IPC: 1.9099
TH3 ROB: 4 LSQ: 3 IQ: 0, IPC: 0.0002
EPOCH ENDS
EPOCH STARTS
TH0 ROB: 4 LSQ: 2 IQ: 0 IPC: 0.0001
TH1 ROB: 4 LSQ: 0 IQ: 0, IPC: 0.5166
TH2 ROB: 104 LSQ: 63 IQ: 96, IPC: 1.9115
TH3 ROB: 4 LSQ: 3 IQ: 0, IPC: 0.0002
EPOCH ENDS
EPOCH STARTS
TH0 ROB: 4 LSQ: 2 IQ: 0 IPC: 0.0001
TH1 ROB: 4 LSQ: 0 IQ: 0, IPC: 0.5152
TH2 ROB: 104 LSQ: 63 IQ: 96, IPC: 1.9132
TH3 ROB: 4 LSQ: 3 IQ: 0, IPC: 0.0002
EPOCH ENDS
EPOCH STARTS
TH0 ROB: 4 LSQ: 2 IQ: 0 IPC: 0.0001
TH1 ROB: 4 LSQ: 0 IQ: 0, IPC: 0.5138
TH2 ROB: 104 LSQ: 63 IQ: 96, IPC: 1.9148
TH3 ROB: 4 LSQ: 3 IQ: 0, IPC: 0.0002
EPOCH ENDS
EPOCH STARTS
TH0 ROB: 4 LSQ: 2 IQ: 0 IPC: 0.0001
TH1 ROB: 4 LSQ: 0 IQ: 0, IPC: 0.5124
TH2 ROB: 104 LSQ: 63 IQ: 96, IPC: 1.9164
TH3 ROB: 4 LSQ: 3 IQ: 0, IPC: 0.0002
EPOCH ENDS
EPOCH STARTS
TH0 ROB: 4 LSQ: 2 IQ: 0 IPC: 0.0001
TH1 ROB: 4 LSQ: 0 IQ: 0, IPC: 0.5110
TH2 ROB: 104 LSQ: 63 IQ: 96, IPC: 1.9180
TH3 ROB: 4 LSQ: 3 IQ: 0, IPC: 0.0002
EPOCH ENDS
EPOCH STARTS
TH0 ROB: 4 LSQ: 2 IQ: 0 IPC: 0.0001
TH1 ROB: 4 LSQ: 0 IQ: 0, IPC: 0.5096
TH2 ROB: 104 LSQ: 63 IQ: 96, IPC: 1.9195
TH3 ROB: 4 LSQ: 3 IQ: 0, IPC: 0.0002
EPOCH ENDS
EPOCH STARTS
TH0 ROB: 4 LSQ: 2 IQ: 0 IPC: 0.0001
TH1 ROB: 4 LSQ: 0 IQ: 0, IPC: 0.5082
TH2 ROB: 104 LSQ: 63 IQ: 96, IPC: 1.9211
TH3 ROB: 4 LSQ: 3 IQ: 0, IPC: 0.0002
EPOCH ENDS
EPOCH STARTS
TH0 ROB: 4 LSQ: 2 IQ: 0 IPC: 0.0001
TH1 ROB: 4 LSQ: 0 IQ: 0, IPC: 0.5069
TH2 ROB: 104 LSQ: 63 IQ: 96, IPC: 1.9227
TH3 ROB: 4 LSQ: 3 IQ: 0, IPC: 0.0002
EPOCH ENDS
EPOCH STARTS
TH0 ROB: 4 LSQ: 2 IQ: 0 IPC: 0.0001
TH1 ROB: 4 LSQ: 0 IQ: 0, IPC: 0.5055
TH2 ROB: 104 LSQ: 63 IQ: 96, IPC: 1.9242
TH3 ROB: 4 LSQ: 3 IQ: 0, IPC: 0.0002
EPOCH ENDS
EPOCH STARTS
TH0 ROB: 4 LSQ: 2 IQ: 0 IPC: 0.0001
TH1 ROB: 4 LSQ: 0 IQ: 0, IPC: 0.5041
TH2 ROB: 104 LSQ: 63 IQ: 96, IPC: 1.9258
TH3 ROB: 4 LSQ: 3 IQ: 0, IPC: 0.0002
EPOCH ENDS
EPOCH STARTS
TH0 ROB: 4 LSQ: 2 IQ: 0 IPC: 0.0001
TH1 ROB: 4 LSQ: 0 IQ: 0, IPC: 0.5028
TH2 ROB: 104 LSQ: 63 IQ: 96, IPC: 1.9273
TH3 ROB: 4 LSQ: 3 IQ: 0, IPC: 0.0002
EPOCH ENDS
EPOCH STARTS
TH0 ROB: 4 LSQ: 2 IQ: 0 IPC: 0.0001
TH1 ROB: 4 LSQ: 0 IQ: 0, IPC: 0.5014
TH2 ROB: 104 LSQ: 63 IQ: 96, IPC: 1.9289
TH3 ROB: 4 LSQ: 3 IQ: 0, IPC: 0.0002
EPOCH ENDS
EPOCH STARTS
TH0 ROB: 4 LSQ: 2 IQ: 0 IPC: 0.0001
TH1 ROB: 4 LSQ: 0 IQ: 0, IPC: 0.5001
TH2 ROB: 104 LSQ: 63 IQ: 96, IPC: 1.9304
TH3 ROB: 4 LSQ: 3 IQ: 0, IPC: 0.0002
EPOCH ENDS
EPOCH STARTS
TH0 ROB: 4 LSQ: 2 IQ: 0 IPC: 0.0001
TH1 ROB: 4 LSQ: 0 IQ: 0, IPC: 0.4988
TH2 ROB: 104 LSQ: 63 IQ: 96, IPC: 1.9319
TH3 ROB: 4 LSQ: 3 IQ: 0, IPC: 0.0002
EPOCH ENDS
EPOCH STARTS
TH0 ROB: 4 LSQ: 2 IQ: 0 IPC: 0.0001
TH1 ROB: 4 LSQ: 0 IQ: 0, IPC: 0.4974
TH2 ROB: 104 LSQ: 63 IQ: 96, IPC: 1.9334
TH3 ROB: 4 LSQ: 3 IQ: 0, IPC: 0.0002
EPOCH ENDS
EPOCH STARTS
TH0 ROB: 4 LSQ: 2 IQ: 0 IPC: 0.0001
TH1 ROB: 4 LSQ: 0 IQ: 0, IPC: 0.4961
TH2 ROB: 104 LSQ: 63 IQ: 96, IPC: 1.9349
TH3 ROB: 4 LSQ: 3 IQ: 0, IPC: 0.0002
EPOCH ENDS
EPOCH STARTS
TH0 ROB: 4 LSQ: 2 IQ: 0 IPC: 0.0001
TH1 ROB: 4 LSQ: 0 IQ: 0, IPC: 0.4948
TH2 ROB: 104 LSQ: 63 IQ: 96, IPC: 1.9364
TH3 ROB: 4 LSQ: 3 IQ: 0, IPC: 0.0002
EPOCH ENDS
EPOCH STARTS
TH0 ROB: 4 LSQ: 2 IQ: 0 IPC: 0.0001
TH1 ROB: 4 LSQ: 0 IQ: 0, IPC: 0.4935
TH2 ROB: 104 LSQ: 63 IQ: 96, IPC: 1.9379
TH3 ROB: 4 LSQ: 3 IQ: 0, IPC: 0.0002
EPOCH ENDS
EPOCH STARTS
TH0 ROB: 4 LSQ: 2 IQ: 0 IPC: 0.0001
TH1 ROB: 4 LSQ: 0 IQ: 0, IPC: 0.4922
TH2 ROB: 104 LSQ: 63 IQ: 96, IPC: 1.9393
TH3 ROB: 4 LSQ: 3 IQ: 0, IPC: 0.0002
EPOCH ENDS
EPOCH STARTS
TH0 ROB: 4 LSQ: 2 IQ: 0 IPC: 0.0001
TH1 ROB: 4 LSQ: 0 IQ: 0, IPC: 0.4909
TH2 ROB: 104 LSQ: 63 IQ: 96, IPC: 1.9408
TH3 ROB: 4 LSQ: 3 IQ: 0, IPC: 0.0002
EPOCH ENDS
EPOCH STARTS
TH0 ROB: 4 LSQ: 2 IQ: 0 IPC: 0.0001
TH1 ROB: 4 LSQ: 0 IQ: 0, IPC: 0.4897
TH2 ROB: 104 LSQ: 63 IQ: 96, IPC: 1.9423
TH3 ROB: 4 LSQ: 3 IQ: 0, IPC: 0.0002
EPOCH ENDS
EPOCH STARTS
TH0 ROB: 4 LSQ: 2 IQ: 0 IPC: 0.0001
TH1 ROB: 4 LSQ: 0 IQ: 0, IPC: 0.4884
TH2 ROB: 104 LSQ: 63 IQ: 96, IPC: 1.9437
TH3 ROB: 4 LSQ: 3 IQ: 0, IPC: 0.0002
EPOCH ENDS
EPOCH STARTS
TH0 ROB: 4 LSQ: 2 IQ: 0 IPC: 0.0001
TH1 ROB: 4 LSQ: 0 IQ: 0, IPC: 0.4871
TH2 ROB: 104 LSQ: 63 IQ: 96, IPC: 1.9452
TH3 ROB: 4 LSQ: 3 IQ: 0, IPC: 0.0002
EPOCH ENDS
EPOCH STARTS
TH0 ROB: 4 LSQ: 2 IQ: 0 IPC: 0.0001
TH1 ROB: 4 LSQ: 0 IQ: 0, IPC: 0.4858
TH2 ROB: 104 LSQ: 63 IQ: 96, IPC: 1.9466
TH3 ROB: 4 LSQ: 3 IQ: 0, IPC: 0.0002
EPOCH ENDS
EPOCH STARTS
TH0 ROB: 4 LSQ: 2 IQ: 0 IPC: 0.0001
TH1 ROB: 4 LSQ: 0 IQ: 0, IPC: 0.4846
TH2 ROB: 104 LSQ: 63 IQ: 96, IPC: 1.9480
TH3 ROB: 4 LSQ: 3 IQ: 0, IPC: 0.0002
EPOCH ENDS
EPOCH STARTS
TH0 ROB: 4 LSQ: 2 IQ: 0 IPC: 0.0001
TH1 ROB: 4 LSQ: 0 IQ: 0, IPC: 0.4833
TH2 ROB: 104 LSQ: 63 IQ: 96, IPC: 1.9495
TH3 ROB: 4 LSQ: 3 IQ: 0, IPC: 0.0002
EPOCH ENDS
EPOCH STARTS
TH0 ROB: 4 LSQ: 2 IQ: 0 IPC: 0.0001
TH1 ROB: 4 LSQ: 0 IQ: 0, IPC: 0.4821
TH2 ROB: 104 LSQ: 63 IQ: 96, IPC: 1.9509
TH3 ROB: 4 LSQ: 3 IQ: 0, IPC: 0.0002
EPOCH ENDS
EPOCH STARTS
TH0 ROB: 4 LSQ: 2 IQ: 0 IPC: 0.0001
TH1 ROB: 4 LSQ: 0 IQ: 0, IPC: 0.4809
TH2 ROB: 104 LSQ: 63 IQ: 96, IPC: 1.9523
TH3 ROB: 4 LSQ: 3 IQ: 0, IPC: 0.0002
EPOCH ENDS
EPOCH STARTS
TH0 ROB: 4 LSQ: 2 IQ: 0 IPC: 0.0001
TH1 ROB: 4 LSQ: 0 IQ: 0, IPC: 0.4796
TH2 ROB: 104 LSQ: 63 IQ: 96, IPC: 1.9537
TH3 ROB: 4 LSQ: 3 IQ: 0, IPC: 0.0002
EPOCH ENDS
EPOCH STARTS
TH0 ROB: 4 LSQ: 2 IQ: 0 IPC: 0.0001
TH1 ROB: 4 LSQ: 0 IQ: 0, IPC: 0.4784
TH2 ROB: 104 LSQ: 63 IQ: 96, IPC: 1.9551
TH3 ROB: 4 LSQ: 3 IQ: 0, IPC: 0.0002
EPOCH ENDS
EPOCH STARTS
TH0 ROB: 4 LSQ: 2 IQ: 0 IPC: 0.0001
TH1 ROB: 4 LSQ: 0 IQ: 0, IPC: 0.4772
TH2 ROB: 104 LSQ: 63 IQ: 96, IPC: 1.9565
TH3 ROB: 4 LSQ: 3 IQ: 0, IPC: 0.0002
EPOCH ENDS
EPOCH STARTS
TH0 ROB: 4 LSQ: 2 IQ: 0 IPC: 0.0001
TH1 ROB: 4 LSQ: 0 IQ: 0, IPC: 0.4760
TH2 ROB: 104 LSQ: 63 IQ: 96, IPC: 1.9578
TH3 ROB: 4 LSQ: 3 IQ: 0, IPC: 0.0002
EPOCH ENDS
EPOCH STARTS
TH0 ROB: 4 LSQ: 2 IQ: 0 IPC: 0.0001
TH1 ROB: 4 LSQ: 0 IQ: 0, IPC: 0.4748
TH2 ROB: 104 LSQ: 63 IQ: 96, IPC: 1.9592
TH3 ROB: 4 LSQ: 3 IQ: 0, IPC: 0.0002
EPOCH ENDS
EPOCH STARTS
[...]
Thread_3_cpred_bimod.retstack_pops            0 # total number of address popped off of ret-addr stack
Thread_3_cpred_bimod.used_ras.PP            0 # total number of RAS predictions used
Thread_3_cpred_bimod.ras_hits.PP            0 # total number of RAS hits
Thread_3_cpred_bimod.ras_rate.PP <error: divide by zero> # RAS prediction rate (i.e., RAS hits/used RAS)
il1.accesses              624351618 # total number of accesses
il1.hits                  624351591 # total number of hits
il1.misses                       27 # total number of misses
il1.replacements                 27 # total number of replacements
il1.writebacks                    0 # total number of writebacks
il1.invalidations                 0 # total number of invalidations
il1.miss_rate                0.0000 # miss rate (i.e., misses/ref)
il1.repl_rate                0.0000 # replacement rate (i.e., repls/ref)
il1.wb_rate                  0.0000 # writeback rate (i.e., wrbks/ref)
il1.inv_rate                 0.0000 # invalidation rate (i.e., invs/ref)
dl1.accesses              251717059 # total number of accesses
dl1.hits                  251381982 # total number of hits
dl1.misses                   335077 # total number of misses
dl1.replacements             335077 # total number of replacements
dl1.writebacks               334990 # total number of writebacks
dl1.invalidations                 0 # total number of invalidations
dl1.miss_rate                0.0013 # miss rate (i.e., misses/ref)
dl1.repl_rate                0.0013 # replacement rate (i.e., repls/ref)
dl1.wb_rate                  0.0013 # writeback rate (i.e., wrbks/ref)
dl1.inv_rate                 0.0000 # invalidation rate (i.e., invs/ref)
ul2.accesses                 670094 # total number of accesses
ul2.hits                     502199 # total number of hits
ul2.misses                   167895 # total number of misses
ul2.replacements             167895 # total number of replacements
ul2.writebacks               166707 # total number of writebacks
ul2.invalidations                 0 # total number of invalidations
ul2.miss_rate                0.2506 # miss rate (i.e., misses/ref)
ul2.repl_rate                0.2506 # replacement rate (i.e., repls/ref)
ul2.wb_rate                  0.2488 # writeback rate (i.e., wrbks/ref)
ul2.inv_rate                 0.0000 # invalidation rate (i.e., invs/ref)
itlb.accesses             624351618 # total number of accesses
itlb.hits                 624351614 # total number of hits
itlb.misses                       4 # total number of misses
itlb.replacements                 4 # total number of replacements
itlb.writebacks                   0 # total number of writebacks
itlb.invalidations                0 # total number of invalidations
itlb.miss_rate               0.0000 # miss rate (i.e., misses/ref)
itlb.repl_rate               0.0000 # replacement rate (i.e., repls/ref)
itlb.wb_rate                 0.0000 # writeback rate (i.e., wrbks/ref)
itlb.inv_rate                0.0000 # invalidation rate (i.e., invs/ref)
dtlb.accesses             375648895 # total number of accesses
dtlb.hits                 375646254 # total number of hits
dtlb.misses                    2641 # total number of misses
dtlb.replacements              2641 # total number of replacements
dtlb.writebacks                   0 # total number of writebacks
dtlb.invalidations                0 # total number of invalidations
dtlb.miss_rate               0.0000 # miss rate (i.e., misses/ref)
dtlb.repl_rate               0.0000 # replacement rate (i.e., repls/ref)
dtlb.wb_rate                 0.0000 # writeback rate (i.e., wrbks/ref)
dtlb.inv_rate                0.0000 # invalidation rate (i.e., invs/ref)
sim_invalid_addrs                 0 # total non-speculative bogus addresses seen (debug var)
ld_text_base           0x0120000000 # program text (code) segment base
mem->ld_text_size            589824 # program text (code) size in bytes
mem->ld_data_base      0x0140000000 # program initialized data segment base
mem->ld_data_size            179872 # program init'ed `.data' and uninit'ed `.bss' size in bytes
mem->ld_stack_base     0x011ff9b000 # program stack segment base (highest address in stack)
mem->ld_stack_size            16384 # program initial stack size
mem->ld_prog_entry     0x0120000300 # program entry point (initial PC)
mem->ld_environ_base   0x011ff97000 # program environment base address address
mem->ld_target_big_endian            0 # target executable endian-ness, non-zero if big endian
mem_0.page_count                106 # total number of pages allocated
mem_0.page_mem                 848k # total size of memory pages allocated
mem_0.ptab_misses              2151 # total first level page table misses
mem_0.ptab_accesses        60943852 # total page table accesses
mem_0.ptab_miss_rate         0.0000 # first level page table miss rate
ld_text_base           0x0120000000 # program text (code) segment base
mem->ld_text_size            401408 # program text (code) size in bytes
mem->ld_data_base      0x0140000000 # program initialized data segment base
mem->ld_data_size             70816 # program init'ed `.data' and uninit'ed `.bss' size in bytes
mem->ld_stack_base     0x011ff9b000 # program stack segment base (highest address in stack)
mem->ld_stack_size            16384 # program initial stack size
mem->ld_prog_entry     0x012000ff40 # program entry point (initial PC)
mem->ld_environ_base   0x011ff97000 # program environment base address address
mem->ld_target_big_endian            0 # target executable endian-ness, non-zero if big endian
mem_0.page_count               4157 # total number of pages allocated
mem_0.page_mem                 848k # total size of memory pages allocated
mem_0.ptab_misses              6308 # total first level page table misses
mem_0.ptab_accesses       223264174 # total page table accesses
mem_0.ptab_miss_rate         0.0000 # first level page table miss rate
ld_text_base           0x0120000000 # program text (code) segment base
mem->ld_text_size           2285568 # program text (code) size in bytes
mem->ld_data_base      0x0140000000 # program initialized data segment base
mem->ld_data_size            152368 # program init'ed `.data' and uninit'ed `.bss' size in bytes
mem->ld_stack_base     0x011ff9b000 # program stack segment base (highest address in stack)
mem->ld_stack_size            16384 # program initial stack size
mem->ld_prog_entry     0x01200b9a00 # program entry point (initial PC)
mem->ld_environ_base   0x011ff97000 # program environment base address address
mem->ld_target_big_endian            0 # target executable endian-ness, non-zero if big endian
mem_0.page_count                300 # total number of pages allocated
mem_0.page_mem                 848k # total size of memory pages allocated
mem_0.ptab_misses               359 # total first level page table misses
mem_0.ptab_accesses      7308788112 # total page table accesses
mem_0.ptab_miss_rate         0.0000 # first level page table miss rate
ld_text_base           0x0120000000 # program text (code) segment base
mem->ld_text_size            303104 # program text (code) size in bytes
mem->ld_data_base      0x0140000000 # program initialized data segment base
mem->ld_data_size           2658496 # program init'ed `.data' and uninit'ed `.bss' size in bytes
mem->ld_stack_base     0x011ff9b000 # program stack segment base (highest address in stack)
mem->ld_stack_size            16384 # program initial stack size
mem->ld_prog_entry     0x0120000300 # program entry point (initial PC)
mem->ld_environ_base   0x011ff97000 # program environment base address address
mem->ld_target_big_endian            0 # target executable endian-ness, non-zero if big endian
mem_0.page_count               2452 # total number of pages allocated
mem_0.page_mem                 848k # total size of memory pages allocated
mem_0.ptab_misses              2577 # total first level page table misses
mem_0.ptab_accesses       136928874 # total page table accesses
mem_0.ptab_miss_rate         0.0000 # first level page table miss rate
rename_power           170831330.8521 # total power usage of rename unit
bpred_power            1130781596.2667 # total power usage of bpred unit
window_power           3569047442.0555 # total power usage of instruction window
lsq_power              1992927240.4008 # total power usage of load/store queue
regfile_power          893118024.3201 # total power usage of arch. regfile
icache_power           1058450497.7872 # total power usage of icache
dcache_power           2311943843.8834 # total power usage of dcache
dcache2_power          1300033981.9295 # total power usage of dcache2
alu_power              4735293863.5147 # total power usage of alu
falu_power             3570261239.8660 # total power usage of falu
resultbus_power        2253231538.7770 # total power usage of resultbus
clock_power            7621587330.2502 # total power usage of clock
avg_rename_power             0.6833 # avg power usage of rename unit
avg_bpred_power              4.5231 # avg power usage of bpred unit
avg_window_power            14.2762 # avg power usage of instruction window
avg_lsq_power                7.9717 # avg power usage of lsq
avg_regfile_power            3.5725 # avg power usage of arch. regfile
avg_icache_power             4.2338 # avg power usage of icache
avg_dcache_power             9.2478 # avg power usage of dcache
avg_dcache2_power            5.2001 # avg power usage of dcache2
avg_alu_power               18.9412 # avg power usage of alu
avg_falu_power              14.2810 # avg power usage of falu
avg_resultbus_power          9.0129 # avg power usage of resultbus
avg_clock_power             30.4863 # avg power usage of clock
fetch_stage_power      2189232094.0540 # total power usage of fetch stage
dispatch_stage_power   170831330.8521 # total power usage of dispatch stage
issue_stage_power      16162477910.5610 # total power usage of issue stage
avg_fetch_power              8.7569 # average power of fetch unit per cycle
avg_dispatch_power           0.6833 # average power of dispatch unit per cycle
avg_issue_power             64.6499 # average power of issue unit per cycle
total_power            27037246690.0374 # total power per cycle
avg_total_power_cycle      108.1490 # average total power per cycle
avg_total_power_cycle_nofp_nod2      88.6678 # average total power per cycle
avg_total_power_insn        43.3045 # average total power per insn
avg_total_power_insn_nofp_nod2      35.5040 # average total power per insn
rename_power_cc1       170831258.4197 # total power usage of rename unit_cc1
bpred_power_cc1        561317951.6632 # total power usage of bpred unit_cc1
window_power_cc1       4092012675.2864 # total power usage of instruction window_cc1
lsq_power_cc1          1667958854.9684 # total power usage of lsq_cc1
regfile_power_cc1      859715968.0556 # total power usage of arch. regfile_cc1
icache_power_cc1       1058449799.2099 # total power usage of icache_cc1
dcache_power_cc1       1167399826.4697 # total power usage of dcache_cc1
dcache2_power_cc1      1742581.1449 # total power usage of dcache2_cc1
alu_power_cc1          1165033952.4600 # total power usage of alu_cc1
resultbus_power_cc1    2251345377.5967 # total power usage of resultbus_cc1
clock_power_cc1        5468944110.8122 # total power usage of clock_cc1
avg_rename_power_cc1         0.6833 # avg power usage of rename unit_cc1
avg_bpred_power_cc1          2.2453 # avg power usage of bpred unit_cc1
avg_window_power_cc1        16.3681 # avg power usage of instruction window_cc1
avg_lsq_power_cc1            6.6718 # avg power usage of lsq_cc1
avg_regfile_power_cc1        3.4389 # avg power usage of arch. regfile_cc1
avg_icache_power_cc1         4.2338 # avg power usage of icache_cc1
avg_dcache_power_cc1         4.6696 # avg power usage of dcache_cc1
avg_dcache2_power_cc1        0.0070 # avg power usage of dcache2_cc1
avg_alu_power_cc1            4.6601 # avg power usage of alu_cc1
avg_resultbus_power_cc1       9.0054 # avg power usage of resultbus_cc1
avg_clock_power_cc1         21.8758 # avg power usage of clock_cc1
fetch_stage_power_cc1  1619767750.8731 # total power usage of fetch stage_cc1
dispatch_stage_power_cc1 170831258.4197 # total power usage of dispatch stage_cc1
issue_stage_power_cc1  10345493267.9262 # total power usage of issue stage_cc1
avg_fetch_power_cc1          6.4791 # average power of fetch unit per cycle_cc1
avg_dispatch_power_cc1       0.6833 # average power of dispatch unit per cycle_cc1
avg_issue_power_cc1         41.3820 # average power of issue unit per cycle_cc1
total_power_cycle_cc1  18464752356.0867 # total power per cycle_cc1
avg_total_power_cycle_cc1      73.8590 # average total power per cycle_cc1
avg_total_power_insn_cc1      29.5743 # average total power per insn_cc1
rename_power_cc2       106658797.1496 # total power usage of rename unit_cc2
bpred_power_cc2        280659050.4632 # total power usage of bpred unit_cc2
window_power_cc2       4017972154.1286 # total power usage of instruction window_cc2
lsq_power_cc2          834991082.9260 # total power usage of lsq_cc2
regfile_power_cc2      143330167.2592 # total power usage of arch. regfile_cc2
icache_power_cc2       1058449799.2099 # total power usage of icache_cc2
dcache_power_cc2       1163911413.0321 # total power usage of dcache_cc2
dcache2_power_cc2      1742289.9373 # total power usage of dcache2_cc2
alu_power_cc2          727194475.3509 # total power usage of alu_cc2
resultbus_power_cc2    1689773164.7149 # total power usage of resultbus_cc2
clock_power_cc2        4220164076.1675 # total power usage of clock_cc2
avg_rename_power_cc2         0.4266 # avg power usage of rename unit_cc2
avg_bpred_power_cc2          1.1226 # avg power usage of bpred unit_cc2
avg_window_power_cc2        16.0719 # avg power usage of instruction window_cc2
avg_lsq_power_cc2            3.3400 # avg power usage of instruction lsq_cc2
avg_regfile_power_cc2        0.5733 # avg power usage of arch. regfile_cc2
avg_icache_power_cc2         4.2338 # avg power usage of icache_cc2
avg_dcache_power_cc2         4.6556 # avg power usage of dcache_cc2
avg_dcache2_power_cc2        0.0070 # avg power usage of dcache2_cc2
avg_alu_power_cc2            2.9088 # avg power usage of alu_cc2
avg_resultbus_power_cc2       6.7591 # avg power usage of resultbus_cc2
avg_clock_power_cc2         16.8807 # avg power usage of clock_cc2
fetch_stage_power_cc2  1339108849.6731 # total power usage of fetch stage_cc2
dispatch_stage_power_cc2 106658797.1496 # total power usage of dispatch stage_cc2
issue_stage_power_cc2  8435584580.0899 # total power usage of issue stage_cc2
avg_fetch_power_cc2          5.3564 # average power of fetch unit per cycle_cc2
avg_dispatch_power_cc2       0.4266 # average power of dispatch unit per cycle_cc2
avg_issue_power_cc2         33.7423 # average power of issue unit per cycle_cc2
total_power_cycle_cc2  14244846470.3394 # total power per cycle_cc2
avg_total_power_cycle_cc2      56.9794 # average total power per cycle_cc2
avg_total_power_insn_cc2      22.8154 # average total power per insn_cc2
rename_power_cc3       106658804.3929 # total power usage of rename unit_cc3
bpred_power_cc3        337605415.8529 # total power usage of bpred unit_cc3
window_power_cc3       4017972164.3722 # total power usage of instruction window_cc3
lsq_power_cc3          867487919.6134 # total power usage of lsq_cc3
regfile_power_cc3      143345200.9363 # total power usage of arch. regfile_cc3
icache_power_cc3       1058449869.0676 # total power usage of icache_cc3
dcache_power_cc3       1278520735.1833 # total power usage of dcache_cc3
dcache2_power_cc3      131571432.7692 # total power usage of dcache2_cc3
alu_power_cc3          1084220471.6972 # total power usage of alu_cc3
resultbus_power_cc3    1689773192.6549 # total power usage of resultbus_cc3
clock_power_cc3        4454952084.1706 # total power usage of clock_cc3
avg_rename_power_cc3         0.4266 # avg power usage of rename unit_cc3
avg_bpred_power_cc3          1.3504 # avg power usage of bpred unit_cc3
avg_window_power_cc3        16.0719 # avg power usage of instruction window_cc3
avg_lsq_power_cc3            3.4700 # avg power usage of instruction lsq_cc3
avg_regfile_power_cc3        0.5734 # avg power usage of arch. regfile_cc3
avg_icache_power_cc3         4.2338 # avg power usage of icache_cc3
avg_dcache_power_cc3         5.1141 # avg power usage of dcache_cc3
avg_dcache2_power_cc3        0.5263 # avg power usage of dcache2_cc3
avg_alu_power_cc3            4.3369 # avg power usage of alu_cc3
avg_resultbus_power_cc3       6.7591 # avg power usage of resultbus_cc3
avg_clock_power_cc3         17.8198 # avg power usage of clock_cc3
fetch_stage_power_cc3  1396055284.9205 # total power usage of fetch stage_cc3
dispatch_stage_power_cc3 106658804.3929 # total power usage of dispatch stage_cc3
issue_stage_power_cc3  9069545916.2903 # total power usage of issue stage_cc3
avg_fetch_power_cc3          5.5842 # average power of fetch unit per cycle_cc3
avg_dispatch_power_cc3       0.4266 # average power of dispatch unit per cycle_cc3
avg_issue_power_cc3         36.2782 # average power of issue unit per cycle_cc3
total_power_cycle_cc3  15170557290.7106 # total power per cycle_cc3
avg_total_power_cycle_cc3      60.6822 # average total power per cycle_cc3
avg_total_power_insn_cc3      24.2981 # average total power per insn_cc3
total_rename_access       624351494 # total number accesses of rename unit
total_bpred_access        124099583 # total number accesses of bpred unit
total_window_access      2748116004 # total number accesses of instruction window
total_lsq_access          375648901 # total number accesses of load/store queue
total_regfile_access      500083860 # total number accesses of arch. regfile
total_icache_access       624351681 # total number accesses of icache
total_dcache_access       251717059 # total number accesses of dcache
total_dcache2_access         670094 # total number accesses of dcache2
total_alu_access          624183562 # total number accesses of alu
total_resultbus_access    750628189 # total number accesses of resultbus
avg_rename_access            2.4974 # avg number accesses of rename unit
avg_bpred_access             0.4964 # avg number accesses of bpred unit
avg_window_access           10.9925 # avg number accesses of instruction window
avg_lsq_access               1.5026 # avg number accesses of lsq
avg_regfile_access           2.0003 # avg number accesses of arch. regfile
avg_icache_access            2.4974 # avg number accesses of icache
avg_dcache_access            1.0069 # avg number accesses of dcache
avg_dcache2_access           0.0027 # avg number accesses of dcache2
avg_alu_access               2.4967 # avg number accesses of alu
avg_resultbus_access         3.0025 # avg number accesses of resultbus
max_rename_access                 4 # max number accesses of rename unit
max_bpred_access                  3 # max number accesses of bpred unit
max_window_access                80 # max number accesses of instruction window
max_lsq_access                    3 # max number accesses of load/store queue
max_regfile_access                9 # max number accesses of arch. regfile
max_icache_access                 4 # max number accesses of icache
max_dcache_access                 4 # max number accesses of dcache
max_dcache2_access                4 # max number accesses of dcache2
max_alu_access                    4 # max number accesses of alu
max_resultbus_access             73 # max number accesses of resultbus
max_cycle_power_cc1        281.9386 # maximum cycle power usage of cc1
max_cycle_power_cc2        274.7285 # maximum cycle power usage of cc2
max_cycle_power_cc3        278.0468 # maximum cycle power usage of cc3


******* SMT STATS *******
THROUGHPUT IPC: 2.4974

TH0 IPC: 0.0000

TH1 IPC: 0.0188

TH2 IPC: 2.4786

TH3 IPC: 0.0000

