sim-outorder: SimpleScalar/Alpha Tool Set version 3.0 of August, 2003.
Copyright (c) 1994-2003 by Todd M. Austin, Ph.D. and SimpleScalar, LLC.
All Rights Reserved. This version of SimpleScalar is licensed for academic
non-commercial use.  No portion of this work may be used by any commercial
entity, or for any commercial purpose, without the prior written permission
of SimpleScalar, LLC (info@simplescalar.com).


Processor Parameters:
Issue Width: 4
Window Size: 224
Number of Virtual Registers: 32
Number of Physical Registers: 256
Datapath Width: 64
Total Power Consumption: 110.149
Branch Predictor Power Consumption: 4.52313  (4.18%)
 branch target buffer power (W): 4.16837
 local predict power (W): 0.0879711
 global predict power (W): 0.0996078
 chooser power (W): 0.0702439
 RAS power (W): 0.0969383
Rename Logic Power Consumption: 0.683325  (0.632%)
 Instruction Decode Power (W): 0.0159915
 RAT decode_power (W): 0.113514
 RAT wordline_power (W): 0.0493708
 RAT bitline_power (W): 0.493541
 DCL Comparators (W): 0.0109075
Instruction Window Power Consumption: 14.2762  (13.2%)
 tagdrive (W): 0.827064
 tagmatch (W): 0.360565
 Selection Logic (W): 0.0885831
 decode_power (W): 1.16922
 wordline_power (W): 0.0844643
 bitline_power (W): 11.7463
Load/Store Queue Power Consumption: 7.97171  (7.37%)
 tagdrive (W): 3.75392
 tagmatch (W): 1.61238
 decode_power (W): 0.181222
 wordline_power (W): 0.0150119
 bitline_power (W): 2.40917
Arch. Register File Power Consumption: 3.57247  (3.3%)
 decode_power (W): 0.113514
 wordline_power (W): 0.0844643
 bitline_power (W): 3.37449
Result Bus Power Consumption: 9.01293  (8.33%)
Total Clock Power: 30.4863  (28.2%)
Int ALU Power: 4.66013  (4.31%)
FP ALU Power: 14.281  (13.2%)
Instruction Cache Power Consumption: 3.97049  (3.67%)
 decode_power (W): 1.67268
 wordline_power (W): 0.028656
 bitline_power (W): 1.5122
 senseamp_power (W): 0.096
 tagarray_power (W): 0.660946
Itlb_power (W): 0.263317 (0.243%)
Data Cache Power Consumption: 8.34726  (7.72%)
 decode_power (W): 1.44978
 wordline_power (W): 0.196735
 bitline_power (W): 4.58765
 senseamp_power (W): 0.768
 tagarray_power (W): 1.34509
Dtlb_power (W): 0.900515 (0.833%)
Level 2 Cache Power Consumption: 5.20014 (4.81%)
 decode_power (W): 0.41817
 wordline_power (W): 0.0430878
 bitline_power (W): 3.0244
 senseamp_power (W): 0.192
 tagarray_power (W): 1.52247
sim-main: initalizing context 0:bwavesNS.1.arg
args: 0:./bwaves.base.alpha 
sim: loading binary...
sim: loading ./bwaves.base.alpha
sim-main: initalizing context 1:lbmNS.1.arg
args: 0:./lbm.base.alpha 1:3000 2:./lbm.in 3:0 4:0 5:100_100_130_ldc.of 
sim: loading binary...
sim: loading ./lbm.base.alpha
sim-main: initalizing context 2:leslie3dNS.1.arg
args: 0:./leslie3d.base.alpha 
sim: loading binary...
sim: loading ./leslie3d.base.alpha
warning: section `.comment' ignored...
sim-main: initalizing context 3:libquantumNS.1.arg
args: 0:./libquantum.base.alpha 1:1397 2:8 
sim: loading binary...
sim: loading ./libquantum.base.alpha
warning: section `.comment' ignored...
sim: command line: ../m-sim_v2.0/sim-outorder bwavesNS.1.arg lbmNS.1.arg leslie3dNS.1.arg libquantumNS.1.arg 

sim: simulation started @ Mon Aug  8 16:20:14 2022, options follow:

sim-outorder: This simulator implements a very detailed out-of-order issue
superscalar processor with a two-level memory system and speculative
execution support.  This simulator is a performance simulator, tracking the
latency of all pipeline operations.

# -config                     # load configuration from a file
# -dumpconfig                 # dump configuration to a file
# -h                    false # print help message    
# -v                    false # verbose operation     
# -d                    false # enable debug message  
# -i                    false # start in Dlite debugger
-seed                       1 # random number generator seed (0 for timer seed)
# -q                    false # initialize and terminate immediately
# -redir:sim           <null> # redirect simulator output to file (non-interactive only)
# -redir:prog          <null> # redirect simulated program output to file
-nice                       0 # simulator scheduling priority
-max:inst           250000000 # maximum number of inst's to execute
-fastfwd             10000000 # number of insts skipped before timing starts
# -ptrace              <null> # generate pipetrace, i.e., <fname|stdout|stderr> <range>
-fetch:speed                1 # speed of front-end of machine relative to execution core
-bpred                  bimod # branch predictor type {nottaken|taken|perfect|bimod|2lev|comb}
-bpred:bimod     2048 # bimodal predictor config (<table size>)
-bpred:2lev      1 1024 8 0 # 2-level predictor config (<l1size> <l2size> <hist_size> <xor>)
-bpred:comb      1024 # combining predictor config (<meta_table_size>)
-bpred:ras                  8 # return address stack size (0 for no return stack)
-bpred:btb       512 4 # BTB config (<num_sets> <associativity>)
# -bpred:spec_update       <null> # speculative predictors update in {ID|WB} (default non-spec)
-cpred                  bimod # cache load-latency predictor type {nottaken|taken|perfect|bimod|2lev|comb}
-cpred:bimod     2048 # cache load-latency bimodal predictor config (<table size>)
-cpred:2lev      1 1024 8 0 # cache load-latency 2-level predictor config (<l1size> <l2size> <hist_size> <xor>)
-cpred:comb      1024 # cache load-latency combining predictor config (<meta_table_size>)
-cpred:ras                  0 # return address stack size (0 for no return stack)
-cpred:btb       512 4 # cache load-latency BTB config (<num_sets> <associativity>)
-decode:width               4 # instruction decode B/W (insts/cycle)
-issue:width                4 # instruction issue B/W (insts/cycle)
-issue:inorder          false # run pipeline with in-order issue
-issue:wrongpath         true # issue instructions down wrong execution paths
-commit:width               4 # instruction commit B/W (insts/cycle)
-rob:size                 224 # reorder buffer (ROB) size
-fetch:policy |icount|round_robin|       icount # fetch policy          
-recovery:model        squash # Alpha squash recovery or perfect predition: |squash|perfect|
-iq:size                   96 # issue queue (IQ) size 
-iq:issue_exec_delay            1 # minimum cycles between issue and execution
-fetch_rename_delay            4 # number of cycles between fetch and rename stages
-rename_dispatch_delay            1 # number cycles between rename and dispatch stages
-rf:size                  256 # register file (RF) size for each the INT and FP physical register file)
-lsq:size                 128 # load/store queue (LSQ) size
-cache:dl1       dl1:256:32:4:l # l1 data cache config, i.e., {<config>|none}
-cache:dl1lat               1 # l1 data cache hit latency (in cycles)
-cache:dl2       ul2:1024:64:8:l # l2 data cache config, i.e., {<config>|none}
-cache:dl2lat               6 # l2 data cache hit latency (in cycles)
-cache:il1       il1:512:32:2:l # l1 inst cache config, i.e., {<config>|dl1|dl2|none}
-cache:il1lat               1 # l1 instruction cache hit latency (in cycles)
-cache:il2                dl2 # l2 instruction cache config, i.e., {<config>|dl2|none}
-cache:il2lat               6 # l2 instruction cache hit latency (in cycles)
-cache:flush            false # flush caches on system calls
-cache:icompress        false # convert 64-bit inst addresses to 32-bit inst equivalents
-mem:lat         100 2 # memory access latency (<first_chunk> <inter_chunk>)
-mem:width                  8 # memory access bus width (in bytes)
-tlb:itlb        itlb:16:4096:4:l # instruction TLB config, i.e., {<config>|none}
-tlb:dtlb        dtlb:32:4096:4:l # data TLB config, i.e., {<config>|none}
-tlb:lat                   30 # inst/data TLB miss latency (in cycles)
-res:ialu                   4 # total number of integer ALU's available
-res:imult                  1 # total number of integer multiplier/dividers available
-res:memport                2 # total number of memory system ports available (to CPU)
-res:fpalu                  4 # total number of floating point ALU's available
-res:fpmult                 1 # total number of floating point multiplier/dividers available
# -pcstat              <null> # profile stat(s) against text addr's (mult uses ok)
-power:print_stats         true # print power statistics collected by wattch?

  Pipetrace range arguments are formatted as follows:

    {{@|#}<start>}:{{@|#|+}<end>}

  Both ends of the range are optional, if neither are specified, the entire
  execution is traced.  Ranges that start with a `@' designate an address
  range to be traced, those that start with an `#' designate a cycle count
  range.  All other range values represent an instruction count range.  The
  second argument, if specified with a `+', indicates a value relative
  to the first argument, e.g., 1000:+100 == 1000:1100.  Program symbols may
  be used in all contexts.

    Examples:   -ptrace FOO.trc #0:#1000
                -ptrace BAR.trc @2000:
                -ptrace BLAH.trc :1500
                -ptrace UXXE.trc :
                -ptrace FOOBAR.trc @main:+278

  Branch predictor configuration examples for 2-level predictor:
    Configurations:   N, M, W, X
      N   # entries in first level (# of shift register(s))
      W   width of shift register(s)
      M   # entries in 2nd level (# of counters, or other FSM)
      X   (yes-1/no-0) xor history and address for 2nd level index
    Sample predictors:
      GAg     : 1, W, 2^W, 0
      GAp     : 1, W, M (M > 2^W), 0
      PAg     : N, W, 2^W, 0
      PAp     : N, W, M (M == 2^(N+W)), 0
      gshare  : 1, W, 2^W, 1
  Predictor `comb' combines a bimodal and a 2-level predictor.

  The cache config parameter <config> has the following format:

    <name>:<nsets>:<bsize>:<assoc>:<repl>

    <name>   - name of the cache being defined
    <nsets>  - number of sets in the cache
    <bsize>  - block size of the cache
    <assoc>  - associativity of the cache
    <repl>   - block replacement strategy, 'l'-LRU, 'f'-FIFO, 'r'-random

    Examples:   -cache:dl1 dl1:4096:32:1:l
                -dtlb dtlb:128:4096:32:r

  Cache levels can be unified by pointing a level of the instruction cache
  hierarchy at the data cache hiearchy using the "dl1" and "dl2" cache
  configuration arguments.  Most sensible combinations are supported, e.g.,

    A unified l2 cache (il2 is pointed at dl2):
      -cache:il1 il1:128:64:1:l -cache:il2 dl2
      -cache:dl1 dl1:256:32:1:l -cache:dl2 ul2:1024:64:2:l

    Or, a fully unified cache hierarchy (il1 pointed at dl1):
      -cache:il1 dl1
      -cache:dl1 ul1:256:32:1:l -cache:dl2 ul2:1024:64:2:l



sim: ** fast forwarding insts **
warning: partially supported sigaction() call...
warning: partially supported sigprocmask() call...
warning: unsupported ioctl call: ioctl(536900702, ...)
warning: unsupported setsysinfo() call...
warning: unsupported ioctl call: ioctl(536900702, ...)
warning: invalid/unimplemented syscall 226, PC=0x120148114, RA=0x120160ddc, winging it
warning: unsupported ioctl call: ioctl(536900702, ...)
warning: unsupported ioctl call: ioctl(536900702, ...)
sim: ** starting performance simulation **
EPOCH STARTS
TH0 ROB: 4 LSQ: 3 IQ: 0 IPC: 0.0591
TH1 ROB: 4 LSQ: 3 IQ: 0, IPC: 0.0690
TH2 ROB: 4 LSQ: 0 IQ: 0, IPC: 0.0538
TH3 ROB: 104 LSQ: 85 IQ: 96, IPC: 2.0386
EPOCH ENDS
EPOCH STARTS
TH0 ROB: 4 LSQ: 3 IQ: 0 IPC: 0.0296
TH1 ROB: 4 LSQ: 3 IQ: 0, IPC: 0.0345
TH2 ROB: 4 LSQ: 0 IQ: 0, IPC: 0.0269
TH3 ROB: 105 LSQ: 86 IQ: 96, IPC: 2.1173
EPOCH ENDS
EPOCH STARTS
TH0 ROB: 4 LSQ: 3 IQ: 0 IPC: 0.0197
TH1 ROB: 4 LSQ: 3 IQ: 0, IPC: 0.0230
TH2 ROB: 4 LSQ: 0 IQ: 0, IPC: 0.0179
TH3 ROB: 105 LSQ: 87 IQ: 96, IPC: 2.1436
EPOCH ENDS
EPOCH STARTS
TH0 ROB: 4 LSQ: 3 IQ: 0 IPC: 0.0148
TH1 ROB: 4 LSQ: 3 IQ: 0, IPC: 0.0173
TH2 ROB: 4 LSQ: 0 IQ: 0, IPC: 0.0135
TH3 ROB: 106 LSQ: 87 IQ: 96, IPC: 2.1567
EPOCH ENDS
EPOCH STARTS
TH0 ROB: 4 LSQ: 3 IQ: 0 IPC: 0.0118
TH1 ROB: 4 LSQ: 3 IQ: 0, IPC: 0.0138
TH2 ROB: 4 LSQ: 0 IQ: 0, IPC: 0.0108
TH3 ROB: 104 LSQ: 85 IQ: 96, IPC: 2.1646
EPOCH ENDS
EPOCH STARTS
TH0 ROB: 4 LSQ: 3 IQ: 0 IPC: 0.0099
TH1 ROB: 4 LSQ: 3 IQ: 0, IPC: 0.0115
TH2 ROB: 4 LSQ: 0 IQ: 0, IPC: 0.0090
TH3 ROB: 104 LSQ: 85 IQ: 96, IPC: 2.1698
EPOCH ENDS
EPOCH STARTS
TH0 ROB: 4 LSQ: 3 IQ: 0 IPC: 0.0084
TH1 ROB: 4 LSQ: 3 IQ: 0, IPC: 0.0099
TH2 ROB: 4 LSQ: 0 IQ: 0, IPC: 0.0077
TH3 ROB: 104 LSQ: 85 IQ: 96, IPC: 2.1736
EPOCH ENDS
EPOCH STARTS
TH0 ROB: 4 LSQ: 3 IQ: 0 IPC: 0.0074
TH1 ROB: 4 LSQ: 3 IQ: 0, IPC: 0.0086
TH2 ROB: 4 LSQ: 0 IQ: 0, IPC: 0.0067
TH3 ROB: 105 LSQ: 87 IQ: 96, IPC: 2.1764
EPOCH ENDS
EPOCH STARTS
TH0 ROB: 4 LSQ: 3 IQ: 0 IPC: 0.0066
TH1 ROB: 4 LSQ: 3 IQ: 0, IPC: 0.0077
TH2 ROB: 4 LSQ: 0 IQ: 0, IPC: 0.0060
TH3 ROB: 105 LSQ: 86 IQ: 96, IPC: 2.1786
EPOCH ENDS
EPOCH STARTS
TH0 ROB: 4 LSQ: 3 IQ: 0 IPC: 0.0059
TH1 ROB: 4 LSQ: 3 IQ: 0, IPC: 0.0069
TH2 ROB: 4 LSQ: 0 IQ: 0, IPC: 0.0054
TH3 ROB: 104 LSQ: 85 IQ: 96, IPC: 2.1803
EPOCH ENDS
EPOCH STARTS
TH0 ROB: 4 LSQ: 3 IQ: 0 IPC: 0.0054
TH1 ROB: 4 LSQ: 3 IQ: 0, IPC: 0.0063
TH2 ROB: 4 LSQ: 0 IQ: 0, IPC: 0.0049
TH3 ROB: 104 LSQ: 85 IQ: 96, IPC: 2.1818
EPOCH ENDS
EPOCH STARTS
TH0 ROB: 4 LSQ: 3 IQ: 0 IPC: 0.0049
TH1 ROB: 4 LSQ: 3 IQ: 0, IPC: 0.0058
TH2 ROB: 4 LSQ: 0 IQ: 0, IPC: 0.0045
TH3 ROB: 104 LSQ: 87 IQ: 96, IPC: 2.1830
EPOCH ENDS
EPOCH STARTS
TH0 ROB: 4 LSQ: 3 IQ: 0 IPC: 0.0045
TH1 ROB: 4 LSQ: 3 IQ: 0, IPC: 0.0053
TH2 ROB: 4 LSQ: 0 IQ: 0, IPC: 0.0041
TH3 ROB: 105 LSQ: 87 IQ: 96, IPC: 2.1840
EPOCH ENDS
EPOCH STARTS
TH0 ROB: 4 LSQ: 3 IQ: 0 IPC: 0.0042
TH1 ROB: 4 LSQ: 3 IQ: 0, IPC: 0.0049
TH2 ROB: 4 LSQ: 0 IQ: 0, IPC: 0.0038
TH3 ROB: 105 LSQ: 85 IQ: 96, IPC: 2.1848
EPOCH ENDS
EPOCH STARTS
TH0 ROB: 4 LSQ: 3 IQ: 0 IPC: 0.0039
TH1 ROB: 4 LSQ: 3 IQ: 0, IPC: 0.0046
TH2 ROB: 4 LSQ: 0 IQ: 0, IPC: 0.0036
TH3 ROB: 104 LSQ: 85 IQ: 96, IPC: 2.1856
EPOCH ENDS
EPOCH STARTS
TH0 ROB: 4 LSQ: 3 IQ: 0 IPC: 0.0037
TH1 ROB: 4 LSQ: 3 IQ: 0, IPC: 0.0043
TH2 ROB: 4 LSQ: 0 IQ: 0, IPC: 0.0034
TH3 ROB: 104 LSQ: 85 IQ: 96, IPC: 2.1862
EPOCH ENDS
EPOCH STARTS
TH0 ROB: 4 LSQ: 3 IQ: 0 IPC: 0.0035
TH1 ROB: 4 LSQ: 3 IQ: 0, IPC: 0.0041
TH2 ROB: 4 LSQ: 0 IQ: 0, IPC: 0.0032
TH3 ROB: 104 LSQ: 86 IQ: 96, IPC: 2.1868
EPOCH ENDS
EPOCH STARTS
TH0 ROB: 4 LSQ: 3 IQ: 0 IPC: 0.0033
TH1 ROB: 4 LSQ: 3 IQ: 0, IPC: 0.0038
TH2 ROB: 4 LSQ: 0 IQ: 0, IPC: 0.0030
TH3 ROB: 107 LSQ: 88 IQ: 96, IPC: 2.1873
EPOCH ENDS
EPOCH STARTS
TH0 ROB: 4 LSQ: 3 IQ: 0 IPC: 0.0031
TH1 ROB: 4 LSQ: 3 IQ: 0, IPC: 0.0036
TH2 ROB: 4 LSQ: 0 IQ: 0, IPC: 0.0028
TH3 ROB: 105 LSQ: 86 IQ: 96, IPC: 2.1878
EPOCH ENDS
EPOCH STARTS
TH0 ROB: 4 LSQ: 3 IQ: 0 IPC: 0.0030
TH1 ROB: 4 LSQ: 3 IQ: 0, IPC: 0.0035
TH2 ROB: 4 LSQ: 0 IQ: 0, IPC: 0.0027
TH3 ROB: 105 LSQ: 85 IQ: 96, IPC: 2.1882
EPOCH ENDS
EPOCH STARTS
TH0 ROB: 4 LSQ: 3 IQ: 0 IPC: 0.0028
TH1 ROB: 4 LSQ: 3 IQ: 0, IPC: 0.0033
TH2 ROB: 4 LSQ: 0 IQ: 0, IPC: 0.0026
TH3 ROB: 104 LSQ: 85 IQ: 96, IPC: 2.1886
EPOCH ENDS
EPOCH STARTS
TH0 ROB: 4 LSQ: 3 IQ: 0 IPC: 0.0027
TH1 ROB: 4 LSQ: 3 IQ: 0, IPC: 0.0031
TH2 ROB: 4 LSQ: 0 IQ: 0, IPC: 0.0024
TH3 ROB: 105 LSQ: 87 IQ: 96, IPC: 2.1889
EPOCH ENDS
EPOCH STARTS
TH0 ROB: 4 LSQ: 3 IQ: 0 IPC: 0.0026
TH1 ROB: 4 LSQ: 3 IQ: 0, IPC: 0.0030
TH2 ROB: 4 LSQ: 0 IQ: 0, IPC: 0.0023
TH3 ROB: 105 LSQ: 86 IQ: 96, IPC: 2.1892
EPOCH ENDS
EPOCH STARTS
TH0 ROB: 4 LSQ: 3 IQ: 0 IPC: 0.0025
TH1 ROB: 4 LSQ: 3 IQ: 0, IPC: 0.0029
TH2 ROB: 4 LSQ: 0 IQ: 0, IPC: 0.0022
TH3 ROB: 104 LSQ: 85 IQ: 96, IPC: 2.1895
EPOCH ENDS
EPOCH STARTS
TH0 ROB: 4 LSQ: 3 IQ: 0 IPC: 0.0024
TH1 ROB: 4 LSQ: 3 IQ: 0, IPC: 0.0028
TH2 ROB: 4 LSQ: 0 IQ: 0, IPC: 0.0022
TH3 ROB: 105 LSQ: 86 IQ: 96, IPC: 2.1898
EPOCH ENDS
EPOCH STARTS
TH0 ROB: 4 LSQ: 3 IQ: 0 IPC: 0.0023
TH1 ROB: 4 LSQ: 3 IQ: 0, IPC: 0.0027
TH2 ROB: 4 LSQ: 0 IQ: 0, IPC: 0.0021
TH3 ROB: 105 LSQ: 87 IQ: 96, IPC: 2.1900
EPOCH ENDS
EPOCH STARTS
TH0 ROB: 4 LSQ: 3 IQ: 0 IPC: 0.0022
TH1 ROB: 4 LSQ: 3 IQ: 0, IPC: 0.0026
TH2 ROB: 4 LSQ: 0 IQ: 0, IPC: 0.0020
TH3 ROB: 105 LSQ: 87 IQ: 96, IPC: 2.1902
EPOCH ENDS
EPOCH STARTS
TH0 ROB: 4 LSQ: 3 IQ: 0 IPC: 0.0021
TH1 ROB: 4 LSQ: 3 IQ: 0, IPC: 0.0025
TH2 ROB: 4 LSQ: 0 IQ: 0, IPC: 0.0019
TH3 ROB: 106 LSQ: 87 IQ: 96, IPC: 2.1904
EPOCH ENDS
EPOCH STARTS
TH0 ROB: 4 LSQ: 3 IQ: 0 IPC: 0.0020
TH1 ROB: 4 LSQ: 3 IQ: 0, IPC: 0.0024
TH2 ROB: 4 LSQ: 0 IQ: 0, IPC: 0.0019
TH3 ROB: 104 LSQ: 85 IQ: 96, IPC: 2.1906
EPOCH ENDS
EPOCH STARTS
TH0 ROB: 4 LSQ: 3 IQ: 0 IPC: 0.0020
TH1 ROB: 4 LSQ: 3 IQ: 0, IPC: 0.0023
TH2 ROB: 4 LSQ: 0 IQ: 0, IPC: 0.0018
TH3 ROB: 104 LSQ: 85 IQ: 96, IPC: 2.1908
EPOCH ENDS
EPOCH STARTS
TH0 ROB: 4 LSQ: 3 IQ: 0 IPC: 0.0019
TH1 ROB: 4 LSQ: 3 IQ: 0, IPC: 0.0022
TH2 ROB: 4 LSQ: 0 IQ: 0, IPC: 0.0017
TH3 ROB: 105 LSQ: 87 IQ: 96, IPC: 2.1910
EPOCH ENDS
EPOCH STARTS
TH0 ROB: 4 LSQ: 3 IQ: 0 IPC: 0.0018
TH1 ROB: 4 LSQ: 3 IQ: 0, IPC: 0.0022
TH2 ROB: 4 LSQ: 0 IQ: 0, IPC: 0.0017
TH3 ROB: 106 LSQ: 87 IQ: 96, IPC: 2.1912
EPOCH ENDS
EPOCH STARTS
TH0 ROB: 4 LSQ: 3 IQ: 0 IPC: 0.0018
TH1 ROB: 4 LSQ: 3 IQ: 0, IPC: 0.0021
TH2 ROB: 4 LSQ: 0 IQ: 0, IPC: 0.0016
TH3 ROB: 106 LSQ: 87 IQ: 96, IPC: 2.1913
EPOCH ENDS
EPOCH STARTS
TH0 ROB: 4 LSQ: 3 IQ: 0 IPC: 0.0017
TH1 ROB: 4 LSQ: 3 IQ: 0, IPC: 0.0020
TH2 ROB: 4 LSQ: 0 IQ: 0, IPC: 0.0016
TH3 ROB: 106 LSQ: 87 IQ: 96, IPC: 2.1914
EPOCH ENDS
EPOCH STARTS
TH0 ROB: 4 LSQ: 3 IQ: 0 IPC: 0.0017
TH1 ROB: 4 LSQ: 3 IQ: 0, IPC: 0.0020
TH2 ROB: 4 LSQ: 0 IQ: 0, IPC: 0.0015
TH3 ROB: 104 LSQ: 86 IQ: 96, IPC: 2.1916
EPOCH ENDS
EPOCH STARTS
TH0 ROB: 4 LSQ: 3 IQ: 0 IPC: 0.0016
TH1 ROB: 4 LSQ: 3 IQ: 0, IPC: 0.0019
TH2 ROB: 4 LSQ: 0 IQ: 0, IPC: 0.0015
TH3 ROB: 104 LSQ: 87 IQ: 96, IPC: 2.1917
EPOCH ENDS
EPOCH STARTS
TH0 ROB: 4 LSQ: 3 IQ: 0 IPC: 0.0016
TH1 ROB: 4 LSQ: 3 IQ: 0, IPC: 0.0019
TH2 ROB: 4 LSQ: 0 IQ: 0, IPC: 0.0015
TH3 ROB: 105 LSQ: 86 IQ: 96, IPC: 2.1918
EPOCH ENDS
EPOCH STARTS
TH0 ROB: 4 LSQ: 3 IQ: 0 IPC: 0.0016
TH1 ROB: 4 LSQ: 3 IQ: 0, IPC: 0.0018
TH2 ROB: 4 LSQ: 0 IQ: 0, IPC: 0.0014
TH3 ROB: 105 LSQ: 86 IQ: 96, IPC: 2.1919
EPOCH ENDS
EPOCH STARTS
TH0 ROB: 4 LSQ: 3 IQ: 0 IPC: 0.0015
TH1 ROB: 4 LSQ: 3 IQ: 0, IPC: 0.0018
TH2 ROB: 4 LSQ: 0 IQ: 0, IPC: 0.0014
TH3 ROB: 106 LSQ: 87 IQ: 96, IPC: 2.1920
EPOCH ENDS
EPOCH STARTS
TH0 ROB: 4 LSQ: 3 IQ: 0 IPC: 0.0015
TH1 ROB: 4 LSQ: 3 IQ: 0, IPC: 0.0017
TH2 ROB: 4 LSQ: 0 IQ: 0, IPC: 0.0013
TH3 ROB: 105 LSQ: 87 IQ: 96, IPC: 2.1921
EPOCH ENDS
EPOCH STARTS
TH0 ROB: 4 LSQ: 3 IQ: 0 IPC: 0.0014
TH1 ROB: 4 LSQ: 3 IQ: 0, IPC: 0.0017
TH2 ROB: 4 LSQ: 0 IQ: 0, IPC: 0.0013
TH3 ROB: 105 LSQ: 86 IQ: 96, IPC: 2.1922
EPOCH ENDS
EPOCH STARTS
TH0 ROB: 4 LSQ: 3 IQ: 0 IPC: 0.0014
TH1 ROB: 4 LSQ: 3 IQ: 0, IPC: 0.0016
TH2 ROB: 4 LSQ: 0 IQ: 0, IPC: 0.0013
TH3 ROB: 105 LSQ: 86 IQ: 96, IPC: 2.1923
EPOCH ENDS
EPOCH STARTS
TH0 ROB: 4 LSQ: 3 IQ: 0 IPC: 0.0014
TH1 ROB: 4 LSQ: 3 IQ: 0, IPC: 0.0016
TH2 ROB: 4 LSQ: 0 IQ: 0, IPC: 0.0013
TH3 ROB: 105 LSQ: 86 IQ: 96, IPC: 2.1924
EPOCH ENDS
EPOCH STARTS
TH0 ROB: 4 LSQ: 3 IQ: 0 IPC: 0.0013
TH1 ROB: 4 LSQ: 3 IQ: 0, IPC: 0.0016
TH2 ROB: 4 LSQ: 0 IQ: 0, IPC: 0.0012
TH3 ROB: 105 LSQ: 86 IQ: 96, IPC: 2.1925
EPOCH ENDS
EPOCH STARTS
TH0 ROB: 4 LSQ: 3 IQ: 0 IPC: 0.0013
TH1 ROB: 4 LSQ: 3 IQ: 0, IPC: 0.0015
TH2 ROB: 4 LSQ: 0 IQ: 0, IPC: 0.0012
TH3 ROB: 105 LSQ: 87 IQ: 96, IPC: 2.1926
EPOCH ENDS
EPOCH STARTS
TH0 ROB: 4 LSQ: 3 IQ: 0 IPC: 0.0013
TH1 ROB: 4 LSQ: 3 IQ: 0, IPC: 0.0015
TH2 ROB: 4 LSQ: 0 IQ: 0, IPC: 0.0012
TH3 ROB: 105 LSQ: 86 IQ: 96, IPC: 2.1927
EPOCH ENDS
EPOCH STARTS
TH0 ROB: 4 LSQ: 3 IQ: 0 IPC: 0.0013
TH1 ROB: 4 LSQ: 3 IQ: 0, IPC: 0.0015
TH2 ROB: 4 LSQ: 0 IQ: 0, IPC: 0.0011
TH3 ROB: 105 LSQ: 86 IQ: 96, IPC: 2.1927
EPOCH ENDS
EPOCH STARTS
TH0 ROB: 4 LSQ: 3 IQ: 0 IPC: 0.0012
TH1 ROB: 4 LSQ: 3 IQ: 0, IPC: 0.0014
TH2 ROB: 4 LSQ: 0 IQ: 0, IPC: 0.0011
TH3 ROB: 105 LSQ: 86 IQ: 96, IPC: 2.1928
EPOCH ENDS
EPOCH STARTS
TH0 ROB: 4 LSQ: 3 IQ: 0 IPC: 0.0012
TH1 ROB: 4 LSQ: 3 IQ: 0, IPC: 0.0014
TH2 ROB: 4 LSQ: 0 IQ: 0, IPC: 0.0011
TH3 ROB: 105 LSQ: 87 IQ: 96, IPC: 2.1929
EPOCH ENDS
EPOCH STARTS
TH0 ROB: 4 LSQ: 3 IQ: 0 IPC: 0.0012
TH1 ROB: 4 LSQ: 3 IQ: 0, IPC: 0.0014
TH2 ROB: 4 LSQ: 0 IQ: 0, IPC: 0.0011
TH3 ROB: 105 LSQ: 88 IQ: 96, IPC: 2.1929
EPOCH ENDS
EPOCH STARTS
TH0 ROB: 4 LSQ: 3 IQ: 0 IPC: 0.0012
TH1 ROB: 4 LSQ: 3 IQ: 0, IPC: 0.0014
TH2 ROB: 4 LSQ: 0 IQ: 0, IPC: 0.0011
TH3 ROB: 104 LSQ: 85 IQ: 96, IPC: 2.1930
EPOCH ENDS
EPOCH STARTS
TH0 ROB: 4 LSQ: 3 IQ: 0 IPC: 0.0011
TH1 ROB: 4 LSQ: 3 IQ: 0, IPC: 0.0013
TH2 ROB: 4 LSQ: 0 IQ: 0, IPC: 0.0010
TH3 ROB: 104 LSQ: 85 IQ: 96, IPC: 2.1930
EPOCH ENDS
EPOCH STARTS
TH0 ROB: 4 LSQ: 3 IQ: 0 IPC: 0.0011
TH1 ROB: 4 LSQ: 3 IQ: 0, IPC: 0.0013
TH2 ROB: 4 LSQ: 0 IQ: 0, IPC: 0.0010
TH3 ROB: 105 LSQ: 86 IQ: 96, IPC: 2.1931
EPOCH ENDS
EPOCH STARTS
TH0 ROB: 4 LSQ: 3 IQ: 0 IPC: 0.0011
TH1 ROB: 4 LSQ: 3 IQ: 0, IPC: 0.0013
TH2 ROB: 4 LSQ: 0 IQ: 0, IPC: 0.0010
TH3 ROB: 105 LSQ: 87 IQ: 96, IPC: 2.1932
EPOCH ENDS
EPOCH STARTS
TH0 ROB: 4 LSQ: 3 IQ: 0 IPC: 0.0011
TH1 ROB: 4 LSQ: 3 IQ: 0, IPC: 0.0013
TH2 ROB: 4 LSQ: 0 IQ: 0, IPC: 0.0010
TH3 ROB: 106 LSQ: 87 IQ: 96, IPC: 2.1932
EPOCH ENDS
EPOCH STARTS
TH0 ROB: 4 LSQ: 3 IQ: 0 IPC: 0.0011
TH1 ROB: 4 LSQ: 3 IQ: 0, IPC: 0.0012
TH2 ROB: 4 LSQ: 0 IQ: 0, IPC: 0.0010
TH3 ROB: 104 LSQ: 85 IQ: 96, IPC: 2.1933
EPOCH ENDS
EPOCH STARTS
TH0 ROB: 4 LSQ: 3 IQ: 0 IPC: 0.0010
TH1 ROB: 4 LSQ: 3 IQ: 0, IPC: 0.0012
TH2 ROB: 4 LSQ: 0 IQ: 0, IPC: 0.0009
TH3 ROB: 104 LSQ: 85 IQ: 96, IPC: 2.1933
EPOCH ENDS
EPOCH STARTS
TH0 ROB: 4 LSQ: 3 IQ: 0 IPC: 0.0010
TH1 ROB: 4 LSQ: 3 IQ: 0, IPC: 0.0012
TH2 ROB: 4 LSQ: 0 IQ: 0, IPC: 0.0009
TH3 ROB: 104 LSQ: 85 IQ: 96, IPC: 2.1934
EPOCH ENDS
EPOCH STARTS
TH0 ROB: 4 LSQ: 3 IQ: 0 IPC: 0.0010
TH1 ROB: 4 LSQ: 3 IQ: 0, IPC: 0.0012
TH2 ROB: 4 LSQ: 0 IQ: 0, IPC: 0.0009
TH3 ROB: 105 LSQ: 87 IQ: 96, IPC: 2.1934
EPOCH ENDS
EPOCH STARTS
TH0 ROB: 4 LSQ: 3 IQ: 0 IPC: 0.0010
TH1 ROB: 4 LSQ: 3 IQ: 0, IPC: 0.0012
TH2 ROB: 4 LSQ: 0 IQ: 0, IPC: 0.0009
TH3 ROB: 105 LSQ: 86 IQ: 96, IPC: 2.1935
EPOCH ENDS
EPOCH STARTS
TH0 ROB: 4 LSQ: 3 IQ: 0 IPC: 0.0010
TH1 ROB: 4 LSQ: 3 IQ: 0, IPC: 0.0011
TH2 ROB: 4 LSQ: 0 IQ: 0, IPC: 0.0009
TH3 ROB: 104 LSQ: 85 IQ: 96, IPC: 2.1935
EPOCH ENDS
EPOCH STARTS
TH0 ROB: 4 LSQ: 3 IQ: 0 IPC: 0.0010
TH1 ROB: 4 LSQ: 3 IQ: 0, IPC: 0.0011
TH2 ROB: 4 LSQ: 0 IQ: 0, IPC: 0.0009
TH3 ROB: 104 LSQ: 85 IQ: 96, IPC: 2.1935
EPOCH ENDS
EPOCH STARTS
TH0 ROB: 4 LSQ: 3 IQ: 0 IPC: 0.0009
TH1 ROB: 4 LSQ: 3 IQ: 0, IPC: 0.0011
TH2 ROB: 4 LSQ: 0 IQ: 0, IPC: 0.0009
TH3 ROB: 104 LSQ: 87 IQ: 96, IPC: 2.1936
EPOCH ENDS
EPOCH STARTS
TH0 ROB: 4 LSQ: 3 IQ: 0 IPC: 0.0009
TH1 ROB: 4 LSQ: 3 IQ: 0, IPC: 0.0011
TH2 ROB: 4 LSQ: 0 IQ: 0, IPC: 0.0008
TH3 ROB: 105 LSQ: 87 IQ: 96, IPC: 2.1936
EPOCH ENDS
EPOCH STARTS
TH0 ROB: 4 LSQ: 3 IQ: 0 IPC: 0.0009
TH1 ROB: 4 LSQ: 3 IQ: 0, IPC: 0.0011
TH2 ROB: 4 LSQ: 0 IQ: 0, IPC: 0.0008
TH3 ROB: 105 LSQ: 85 IQ: 96, IPC: 2.1937
EPOCH ENDS
EPOCH STARTS
TH0 ROB: 4 LSQ: 3 IQ: 0 IPC: 0.0009
TH1 ROB: 4 LSQ: 3 IQ: 0, IPC: 0.0010
TH2 ROB: 4 LSQ: 0 IQ: 0, IPC: 0.0008
TH3 ROB: 104 LSQ: 85 IQ: 96, IPC: 2.1937
EPOCH ENDS
EPOCH STARTS
TH0 ROB: 4 LSQ: 3 IQ: 0 IPC: 0.0009
TH1 ROB: 4 LSQ: 3 IQ: 0, IPC: 0.0010
TH2 ROB: 4 LSQ: 0 IQ: 0, IPC: 0.0008
TH3 ROB: 104 LSQ: 85 IQ: 96, IPC: 2.1937
EPOCH ENDS
EPOCH STARTS
TH0 ROB: 4 LSQ: 3 IQ: 0 IPC: 0.0009
TH1 ROB: 4 LSQ: 3 IQ: 0, IPC: 0.0010
TH2 ROB: 4 LSQ: 0 IQ: 0, IPC: 0.0008
TH3 ROB: 104 LSQ: 86 IQ: 96, IPC: 2.1938
EPOCH ENDS
EPOCH STARTS
TH0 ROB: 4 LSQ: 3 IQ: 0 IPC: 0.0009
TH1 ROB: 4 LSQ: 3 IQ: 0, IPC: 0.0010
TH2 ROB: 4 LSQ: 0 IQ: 0, IPC: 0.0008
TH3 ROB: 107 LSQ: 88 IQ: 96, IPC: 2.1938
EPOCH ENDS
EPOCH STARTS
TH0 ROB: 4 LSQ: 3 IQ: 0 IPC: 0.0008
TH1 ROB: 4 LSQ: 3 IQ: 0, IPC: 0.0010
TH2 ROB: 4 LSQ: 0 IQ: 0, IPC: 0.0008
TH3 ROB: 105 LSQ: 86 IQ: 96, IPC: 2.1938
EPOCH ENDS
EPOCH STARTS
TH0 ROB: 4 LSQ: 3 IQ: 0 IPC: 0.0008
TH1 ROB: 4 LSQ: 3 IQ: 0, IPC: 0.0010
TH2 ROB: 4 LSQ: 0 IQ: 0, IPC: 0.0008
TH3 ROB: 105 LSQ: 85 IQ: 96, IPC: 2.1939
EPOCH ENDS
EPOCH STARTS
TH0 ROB: 4 LSQ: 3 IQ: 0 IPC: 0.0008
TH1 ROB: 4 LSQ: 3 IQ: 0, IPC: 0.0010
TH2 ROB: 4 LSQ: 0 IQ: 0, IPC: 0.0007
TH3 ROB: 104 LSQ: 85 IQ: 96, IPC: 2.1939
EPOCH ENDS
EPOCH STARTS
TH0 ROB: 4 LSQ: 3 IQ: 0 IPC: 0.0008
TH1 ROB: 4 LSQ: 3 IQ: 0, IPC: 0.0009
TH2 ROB: 4 LSQ: 0 IQ: 0, IPC: 0.0007
TH3 ROB: 105 LSQ: 87 IQ: 96, IPC: 2.1939
EPOCH ENDS
EPOCH STARTS
TH0 ROB: 4 LSQ: 3 IQ: 0 IPC: 0.0008
TH1 ROB: 4 LSQ: 3 IQ: 0, IPC: 0.0009
TH2 ROB: 4 LSQ: 0 IQ: 0, IPC: 0.0007
TH3 ROB: 105 LSQ: 86 IQ: 96, IPC: 2.1939
EPOCH ENDS
EPOCH STARTS
TH0 ROB: 4 LSQ: 3 IQ: 0 IPC: 0.0008
TH1 ROB: 4 LSQ: 3 IQ: 0, IPC: 0.0009
TH2 ROB: 4 LSQ: 0 IQ: 0, IPC: 0.0007
TH3 ROB: 104 LSQ: 85 IQ: 96, IPC: 2.1940
EPOCH ENDS
EPOCH STARTS
TH0 ROB: 4 LSQ: 3 IQ: 0 IPC: 0.0008
TH1 ROB: 4 LSQ: 3 IQ: 0, IPC: 0.0009
TH2 ROB: 4 LSQ: 0 IQ: 0, IPC: 0.0007
TH3 ROB: 105 LSQ: 86 IQ: 96, IPC: 2.1940
EPOCH ENDS
EPOCH STARTS
TH0 ROB: 4 LSQ: 3 IQ: 0 IPC: 0.0008
TH1 ROB: 4 LSQ: 3 IQ: 0, IPC: 0.0009
TH2 ROB: 4 LSQ: 0 IQ: 0, IPC: 0.0007
TH3 ROB: 105 LSQ: 87 IQ: 96, IPC: 2.1940
EPOCH ENDS
EPOCH STARTS
TH0 ROB: 4 LSQ: 3 IQ: 0 IPC: 0.0008
TH1 ROB: 4 LSQ: 3 IQ: 0, IPC: 0.0009
TH2 ROB: 4 LSQ: 0 IQ: 0, IPC: 0.0007
TH3 ROB: 105 LSQ: 87 IQ: 96, IPC: 2.1941
EPOCH ENDS
EPOCH STARTS
TH0 ROB: 4 LSQ: 3 IQ: 0 IPC: 0.0007
TH1 ROB: 4 LSQ: 3 IQ: 0, IPC: 0.0009
TH2 ROB: 4 LSQ: 0 IQ: 0, IPC: 0.0007
TH3 ROB: 106 LSQ: 87 IQ: 96, IPC: 2.1941
EPOCH ENDS
EPOCH STARTS
TH0 ROB: 4 LSQ: 3 IQ: 0 IPC: 0.0007
TH1 ROB: 4 LSQ: 3 IQ: 0, IPC: 0.0009
TH2 ROB: 4 LSQ: 0 IQ: 0, IPC: 0.0007
TH3 ROB: 104 LSQ: 85 IQ: 96, IPC: 2.1941
EPOCH ENDS
EPOCH STARTS
TH0 ROB: 4 LSQ: 3 IQ: 0 IPC: 0.0007
TH1 ROB: 4 LSQ: 3 IQ: 0, IPC: 0.0009
TH2 ROB: 4 LSQ: 0 IQ: 0, IPC: 0.0007
TH3 ROB: 104 LSQ: 85 IQ: 96, IPC: 2.1941
EPOCH ENDS
EPOCH STARTS
TH0 ROB: 4 LSQ: 3 IQ: 0 IPC: 0.0007
TH1 ROB: 4 LSQ: 3 IQ: 0, IPC: 0.0008
TH2 ROB: 4 LSQ: 0 IQ: 0, IPC: 0.0007
TH3 ROB: 105 LSQ: 87 IQ: 96, IPC: 2.1942
EPOCH ENDS
EPOCH STARTS
TH0 ROB: 4 LSQ: 3 IQ: 0 IPC: 0.0007
TH1 ROB: 4 LSQ: 3 IQ: 0, IPC: 0.0008
TH2 ROB: 4 LSQ: 0 IQ: 0, IPC: 0.0006
TH3 ROB: 106 LSQ: 87 IQ: 96, IPC: 2.1942
EPOCH ENDS
EPOCH STARTS
TH0 ROB: 4 LSQ: 3 IQ: 0 IPC: 0.0007
TH1 ROB: 4 LSQ: 3 IQ: 0, IPC: 0.0008
TH2 ROB: 4 LSQ: 0 IQ: 0, IPC: 0.0006
TH3 ROB: 106 LSQ: 87 IQ: 96, IPC: 2.1942
EPOCH ENDS
EPOCH STARTS
TH0 ROB: 4 LSQ: 3 IQ: 0 IPC: 0.0007
TH1 ROB: 4 LSQ: 3 IQ: 0, IPC: 0.0008
TH2 ROB: 4 LSQ: 0 IQ: 0, IPC: 0.0006
TH3 ROB: 106 LSQ: 87 IQ: 96, IPC: 2.1942
EPOCH ENDS
EPOCH STARTS
TH0 ROB: 4 LSQ: 0 IQ: 0 IPC: 0.0023
TH1 ROB: 105 LSQ: 85 IQ: 96, IPC: 0.0114
TH2 ROB: 4 LSQ: 3 IQ: 0, IPC: 0.0023
TH3 ROB: 4 LSQ: 2 IQ: 0, IPC: 2.1810
EPOCH ENDS
EPOCH STARTS
TH0 ROB: 4 LSQ: 0 IQ: 0 IPC: 0.0022
TH1 ROB: 104 LSQ: 87 IQ: 96, IPC: 0.0363
TH2 ROB: 4 LSQ: 3 IQ: 0, IPC: 0.0022
TH3 ROB: 4 LSQ: 2 IQ: 0, IPC: 2.1559
EPOCH ENDS
EPOCH STARTS
TH0 ROB: 4 LSQ: 0 IQ: 0 IPC: 0.0022
TH1 ROB: 104 LSQ: 88 IQ: 96, IPC: 0.0607
TH2 ROB: 4 LSQ: 3 IQ: 0, IPC: 0.0022
TH3 ROB: 4 LSQ: 2 IQ: 0, IPC: 2.1314
EPOCH ENDS
EPOCH STARTS
TH0 ROB: 4 LSQ: 0 IQ: 0 IPC: 0.0022
TH1 ROB: 105 LSQ: 88 IQ: 96, IPC: 0.0845
TH2 ROB: 4 LSQ: 3 IQ: 0, IPC: 0.0022
TH3 ROB: 4 LSQ: 2 IQ: 0, IPC: 2.1074
EPOCH ENDS
EPOCH STARTS
TH0 ROB: 4 LSQ: 0 IQ: 0 IPC: 0.0022
TH1 ROB: 104 LSQ: 84 IQ: 96, IPC: 0.1078
TH2 ROB: 4 LSQ: 3 IQ: 0, IPC: 0.0022
TH3 ROB: 4 LSQ: 2 IQ: 0, IPC: 2.0840
EPOCH ENDS
EPOCH STARTS
TH0 ROB: 4 LSQ: 0 IQ: 0 IPC: 0.0021
TH1 ROB: 104 LSQ: 88 IQ: 96, IPC: 0.1306
TH2 ROB: 4 LSQ: 3 IQ: 0, IPC: 0.0021
TH3 ROB: 4 LSQ: 2 IQ: 0, IPC: 2.0611
EPOCH ENDS
EPOCH STARTS
TH0 ROB: 4 LSQ: 0 IQ: 0 IPC: 0.0021
TH1 ROB: 104 LSQ: 88 IQ: 96, IPC: 0.1529
TH2 ROB: 4 LSQ: 3 IQ: 0, IPC: 0.0021
TH3 ROB: 4 LSQ: 2 IQ: 0, IPC: 2.0387
EPOCH ENDS
EPOCH STARTS
TH0 ROB: 4 LSQ: 0 IQ: 0 IPC: 0.0021
TH1 ROB: 106 LSQ: 87 IQ: 96, IPC: 0.1747
TH2 ROB: 4 LSQ: 3 IQ: 0, IPC: 0.0021
TH3 ROB: 4 LSQ: 2 IQ: 0, IPC: 2.0168
EPOCH ENDS
EPOCH STARTS
TH0 ROB: 4 LSQ: 0 IQ: 0 IPC: 0.0021
TH1 ROB: 104 LSQ: 85 IQ: 96, IPC: 0.1961
TH2 ROB: 4 LSQ: 3 IQ: 0, IPC: 0.0021
TH3 ROB: 4 LSQ: 2 IQ: 0, IPC: 1.9953
EPOCH ENDS
EPOCH STARTS
TH0 ROB: 4 LSQ: 0 IQ: 0 IPC: 0.0021
TH1 ROB: 104 LSQ: 88 IQ: 96, IPC: 0.2170
TH2 ROB: 4 LSQ: 3 IQ: 0, IPC: 0.0021
TH3 ROB: 4 LSQ: 2 IQ: 0, IPC: 1.9743
EPOCH ENDS
EPOCH STARTS
TH0 ROB: 4 LSQ: 0 IQ: 0 IPC: 0.0020
TH1 ROB: 104 LSQ: 88 IQ: 96, IPC: 0.2375
TH2 ROB: 4 LSQ: 3 IQ: 0, IPC: 0.0020
TH3 ROB: 4 LSQ: 2 IQ: 0, IPC: 1.9538
EPOCH ENDS
EPOCH STARTS
TH0 ROB: 4 LSQ: 0 IQ: 0 IPC: 0.0020
TH1 ROB: 105 LSQ: 85 IQ: 96, IPC: 0.2575
TH2 ROB: 4 LSQ: 3 IQ: 0, IPC: 0.0020
TH3 ROB: 4 LSQ: 2 IQ: 0, IPC: 1.9336
EPOCH ENDS
EPOCH STARTS
TH0 ROB: 4 LSQ: 0 IQ: 0 IPC: 0.0020
TH1 ROB: 104 LSQ: 87 IQ: 96, IPC: 0.2772
TH2 ROB: 4 LSQ: 3 IQ: 0, IPC: 0.0020
TH3 ROB: 4 LSQ: 2 IQ: 0, IPC: 1.9139
EPOCH ENDS
EPOCH STARTS
TH0 ROB: 4 LSQ: 0 IQ: 0 IPC: 0.0020
TH1 ROB: 104 LSQ: 88 IQ: 96, IPC: 0.2964
TH2 ROB: 4 LSQ: 3 IQ: 0, IPC: 0.0020
TH3 ROB: 4 LSQ: 2 IQ: 0, IPC: 1.8946
EPOCH ENDS
EPOCH STARTS
TH0 ROB: 4 LSQ: 0 IQ: 0 IPC: 0.0020
TH1 ROB: 105 LSQ: 88 IQ: 96, IPC: 0.3152
TH2 ROB: 4 LSQ: 3 IQ: 0, IPC: 0.0020
TH3 ROB: 4 LSQ: 2 IQ: 0, IPC: 1.8756
EPOCH ENDS
EPOCH STARTS
TH0 ROB: 4 LSQ: 0 IQ: 0 IPC: 0.0019
TH1 ROB: 104 LSQ: 84 IQ: 96, IPC: 0.3337
TH2 ROB: 4 LSQ: 3 IQ: 0, IPC: 0.0019
TH3 ROB: 4 LSQ: 2 IQ: 0, IPC: 1.8571
EPOCH ENDS
EPOCH STARTS
TH0 ROB: 4 LSQ: 0 IQ: 0 IPC: 0.0019
TH1 ROB: 104 LSQ: 88 IQ: 96, IPC: 0.3518
TH2 ROB: 4 LSQ: 3 IQ: 0, IPC: 0.0019
TH3 ROB: 4 LSQ: 2 IQ: 0, IPC: 1.8388
EPOCH ENDS
EPOCH STARTS
TH0 ROB: 4 LSQ: 0 IQ: 0 IPC: 0.0019
TH1 ROB: 104 LSQ: 88 IQ: 96, IPC: 0.3696
TH2 ROB: 4 LSQ: 3 IQ: 0, IPC: 0.0019
TH3 ROB: 4 LSQ: 2 IQ: 0, IPC: 1.8210
EPOCH ENDS
EPOCH STARTS
TH0 ROB: 4 LSQ: 0 IQ: 0 IPC: 0.0019
TH1 ROB: 106 LSQ: 87 IQ: 96, IPC: 0.3870
TH2 ROB: 4 LSQ: 3 IQ: 0, IPC: 0.0019
TH3 ROB: 4 LSQ: 2 IQ: 0, IPC: 1.8035
EPOCH ENDS
EPOCH STARTS
TH0 ROB: 4 LSQ: 0 IQ: 0 IPC: 0.0019
TH1 ROB: 104 LSQ: 85 IQ: 96, IPC: 0.4041
TH2 ROB: 4 LSQ: 3 IQ: 0, IPC: 0.0019
TH3 ROB: 4 LSQ: 2 IQ: 0, IPC: 1.7863
EPOCH ENDS
EPOCH STARTS
TH0 ROB: 4 LSQ: 0 IQ: 0 IPC: 0.0018
TH1 ROB: 104 LSQ: 88 IQ: 96, IPC: 0.4209
TH2 ROB: 4 LSQ: 3 IQ: 0, IPC: 0.0018
TH3 ROB: 4 LSQ: 2 IQ: 0, IPC: 1.7695
EPOCH ENDS
EPOCH STARTS
TH0 ROB: 4 LSQ: 0 IQ: 0 IPC: 0.0018
TH1 ROB: 104 LSQ: 88 IQ: 96, IPC: 0.4374
TH2 ROB: 4 LSQ: 3 IQ: 0, IPC: 0.0018
TH3 ROB: 4 LSQ: 2 IQ: 0, IPC: 1.7529
EPOCH ENDS
EPOCH STARTS
TH0 ROB: 4 LSQ: 0 IQ: 0 IPC: 0.0018
TH1 ROB: 105 LSQ: 85 IQ: 96, IPC: 0.4535
TH2 ROB: 4 LSQ: 3 IQ: 0, IPC: 0.0018
TH3 ROB: 4 LSQ: 2 IQ: 0, IPC: 1.7367
EPOCH ENDS
EPOCH STARTS
TH0 ROB: 4 LSQ: 0 IQ: 0 IPC: 0.0018
TH1 ROB: 104 LSQ: 87 IQ: 96, IPC: 0.4694
TH2 ROB: 4 LSQ: 3 IQ: 0, IPC: 0.0018
TH3 ROB: 4 LSQ: 2 IQ: 0, IPC: 1.7208
EPOCH ENDS
EPOCH STARTS
TH0 ROB: 4 LSQ: 0 IQ: 0 IPC: 0.0018
TH1 ROB: 104 LSQ: 88 IQ: 96, IPC: 0.4849
TH2 ROB: 4 LSQ: 3 IQ: 0, IPC: 0.0018
TH3 ROB: 4 LSQ: 2 IQ: 0, IPC: 1.7051
EPOCH ENDS
EPOCH STARTS
TH0 ROB: 4 LSQ: 0 IQ: 0 IPC: 0.0018
TH1 ROB: 105 LSQ: 88 IQ: 96, IPC: 0.5002
TH2 ROB: 4 LSQ: 3 IQ: 0, IPC: 0.0018
TH3 ROB: 4 LSQ: 2 IQ: 0, IPC: 1.6898
EPOCH ENDS
EPOCH STARTS
TH0 ROB: 4 LSQ: 0 IQ: 0 IPC: 0.0017
TH1 ROB: 104 LSQ: 84 IQ: 96, IPC: 0.5152
TH2 ROB: 4 LSQ: 3 IQ: 0, IPC: 0.0017
TH3 ROB: 4 LSQ: 2 IQ: 0, IPC: 1.6747
EPOCH ENDS
EPOCH STARTS
TH0 ROB: 4 LSQ: 0 IQ: 0 IPC: 0.0017
TH1 ROB: 104 LSQ: 88 IQ: 96, IPC: 0.5300
TH2 ROB: 4 LSQ: 3 IQ: 0, IPC: 0.0017
TH3 ROB: 4 LSQ: 2 IQ: 0, IPC: 1.6598
EPOCH ENDS
EPOCH STARTS
TH0 ROB: 4 LSQ: 0 IQ: 0 IPC: 0.0017
TH1 ROB: 104 LSQ: 88 IQ: 96, IPC: 0.5445
TH2 ROB: 4 LSQ: 3 IQ: 0, IPC: 0.0017
TH3 ROB: 4 LSQ: 2 IQ: 0, IPC: 1.6453
EPOCH ENDS
EPOCH STARTS
TH0 ROB: 4 LSQ: 0 IQ: 0 IPC: 0.0017
TH1 ROB: 106 LSQ: 87 IQ: 96, IPC: 0.5587
TH2 ROB: 4 LSQ: 3 IQ: 0, IPC: 0.0017
TH3 ROB: 4 LSQ: 2 IQ: 0, IPC: 1.6310
EPOCH ENDS
EPOCH STARTS
TH0 ROB: 4 LSQ: 0 IQ: 0 IPC: 0.0017
TH1 ROB: 104 LSQ: 85 IQ: 96, IPC: 0.5727
TH2 ROB: 4 LSQ: 3 IQ: 0, IPC: 0.0017
TH3 ROB: 4 LSQ: 2 IQ: 0, IPC: 1.6169
EPOCH ENDS
EPOCH STARTS
TH0 ROB: 4 LSQ: 0 IQ: 0 IPC: 0.0017
TH1 ROB: 104 LSQ: 88 IQ: 96, IPC: 0.5865
TH2 ROB: 4 LSQ: 3 IQ: 0, IPC: 0.0017
TH3 ROB: 4 LSQ: 2 IQ: 0, IPC: 1.6031
EPOCH ENDS
EPOCH STARTS
TH0 ROB: 4 LSQ: 0 IQ: 0 IPC: 0.0017
TH1 ROB: 104 LSQ: 88 IQ: 96, IPC: 0.6000
TH2 ROB: 4 LSQ: 3 IQ: 0, IPC: 0.0017
TH3 ROB: 4 LSQ: 2 IQ: 0, IPC: 1.5895
EPOCH ENDS
EPOCH STARTS
TH0 ROB: 4 LSQ: 0 IQ: 0 IPC: 0.0016
TH1 ROB: 105 LSQ: 85 IQ: 96, IPC: 0.6133
TH2 ROB: 4 LSQ: 3 IQ: 0, IPC: 0.0016
TH3 ROB: 4 LSQ: 2 IQ: 0, IPC: 1.5762
EPOCH ENDS
EPOCH STARTS
TH0 ROB: 4 LSQ: 0 IQ: 0 IPC: 0.0016
TH1 ROB: 104 LSQ: 87 IQ: 96, IPC: 0.6263
TH2 ROB: 4 LSQ: 3 IQ: 0, IPC: 0.0016
TH3 ROB: 4 LSQ: 2 IQ: 0, IPC: 1.5630
EPOCH ENDS
EPOCH STARTS
TH0 ROB: 4 LSQ: 0 IQ: 0 IPC: 0.0016
TH1 ROB: 104 LSQ: 88 IQ: 96, IPC: 0.6392
TH2 ROB: 4 LSQ: 3 IQ: 0, IPC: 0.0016
TH3 ROB: 4 LSQ: 2 IQ: 0, IPC: 1.5501
EPOCH ENDS
EPOCH STARTS
TH0 ROB: 4 LSQ: 0 IQ: 0 IPC: 0.0016
TH1 ROB: 105 LSQ: 88 IQ: 96, IPC: 0.6518
TH2 ROB: 4 LSQ: 3 IQ: 0, IPC: 0.0016
TH3 ROB: 4 LSQ: 2 IQ: 0, IPC: 1.5374
EPOCH ENDS
EPOCH STARTS
TH0 ROB: 4 LSQ: 0 IQ: 0 IPC: 0.0016
TH1 ROB: 104 LSQ: 84 IQ: 96, IPC: 0.6643
TH2 ROB: 4 LSQ: 3 IQ: 0, IPC: 0.0016
TH3 ROB: 4 LSQ: 2 IQ: 0, IPC: 1.5249
EPOCH ENDS
EPOCH STARTS
TH0 ROB: 4 LSQ: 0 IQ: 0 IPC: 0.0016
TH1 ROB: 104 LSQ: 88 IQ: 96, IPC: 0.6765
TH2 ROB: 4 LSQ: 3 IQ: 0, IPC: 0.0016
TH3 ROB: 4 LSQ: 2 IQ: 0, IPC: 1.5126
EPOCH ENDS
EPOCH STARTS
TH0 ROB: 4 LSQ: 0 IQ: 0 IPC: 0.0016
TH1 ROB: 104 LSQ: 88 IQ: 96, IPC: 0.6886
TH2 ROB: 4 LSQ: 3 IQ: 0, IPC: 0.0016
TH3 ROB: 4 LSQ: 2 IQ: 0, IPC: 1.5005
EPOCH ENDS
EPOCH STARTS
TH0 ROB: 4 LSQ: 0 IQ: 0 IPC: 0.0016
TH1 ROB: 106 LSQ: 87 IQ: 96, IPC: 0.7004
TH2 ROB: 4 LSQ: 3 IQ: 0, IPC: 0.0015
TH3 ROB: 4 LSQ: 2 IQ: 0, IPC: 1.4886
EPOCH ENDS
EPOCH STARTS
TH0 ROB: 4 LSQ: 0 IQ: 0 IPC: 0.0015
TH1 ROB: 104 LSQ: 85 IQ: 96, IPC: 0.7121
TH2 ROB: 4 LSQ: 3 IQ: 0, IPC: 0.0015
TH3 ROB: 4 LSQ: 2 IQ: 0, IPC: 1.4769
EPOCH ENDS
EPOCH STARTS
TH0 ROB: 4 LSQ: 0 IQ: 0 IPC: 0.0015
TH1 ROB: 104 LSQ: 88 IQ: 96, IPC: 0.7236
TH2 ROB: 4 LSQ: 3 IQ: 0, IPC: 0.0015
TH3 ROB: 4 LSQ: 2 IQ: 0, IPC: 1.4653
EPOCH ENDS
EPOCH STARTS
TH0 ROB: 4 LSQ: 0 IQ: 0 IPC: 0.0015
TH1 ROB: 104 LSQ: 88 IQ: 96, IPC: 0.7349
TH2 ROB: 4 LSQ: 3 IQ: 0, IPC: 0.0015
TH3 ROB: 4 LSQ: 2 IQ: 0, IPC: 1.4540
EPOCH ENDS
EPOCH STARTS
TH0 ROB: 4 LSQ: 0 IQ: 0 IPC: 0.0015
TH1 ROB: 105 LSQ: 85 IQ: 96, IPC: 0.7460
TH2 ROB: 4 LSQ: 3 IQ: 0, IPC: 0.0015
TH3 ROB: 4 LSQ: 2 IQ: 0, IPC: 1.4428
EPOCH ENDS
EPOCH STARTS
TH0 ROB: 4 LSQ: 0 IQ: 0 IPC: 0.0015
TH1 ROB: 104 LSQ: 87 IQ: 96, IPC: 0.7570
TH2 ROB: 4 LSQ: 3 IQ: 0, IPC: 0.0015
TH3 ROB: 4 LSQ: 2 IQ: 0, IPC: 1.4318
EPOCH ENDS
EPOCH STARTS
TH0 ROB: 4 LSQ: 0 IQ: 0 IPC: 0.0015
TH1 ROB: 104 LSQ: 88 IQ: 96, IPC: 0.7677
TH2 ROB: 4 LSQ: 3 IQ: 0, IPC: 0.0015
TH3 ROB: 4 LSQ: 2 IQ: 0, IPC: 1.4209
EPOCH ENDS
EPOCH STARTS
TH0 ROB: 4 LSQ: 0 IQ: 0 IPC: 0.0015
TH1 ROB: 105 LSQ: 88 IQ: 96, IPC: 0.7784
TH2 ROB: 4 LSQ: 3 IQ: 0, IPC: 0.0015
TH3 ROB: 4 LSQ: 2 IQ: 0, IPC: 1.4102
EPOCH ENDS
EPOCH STARTS
TH0 ROB: 4 LSQ: 0 IQ: 0 IPC: 0.0015
TH1 ROB: 104 LSQ: 84 IQ: 96, IPC: 0.7889
TH2 ROB: 4 LSQ: 3 IQ: 0, IPC: 0.0015
TH3 ROB: 4 LSQ: 2 IQ: 0, IPC: 1.3997
EPOCH ENDS
EPOCH STARTS
TH0 ROB: 4 LSQ: 0 IQ: 0 IPC: 0.0014
TH1 ROB: 104 LSQ: 88 IQ: 96, IPC: 0.7992
TH2 ROB: 4 LSQ: 3 IQ: 0, IPC: 0.0014
TH3 ROB: 4 LSQ: 2 IQ: 0, IPC: 1.3894
EPOCH ENDS
EPOCH STARTS
TH0 ROB: 4 LSQ: 0 IQ: 0 IPC: 0.0014
TH1 ROB: 104 LSQ: 88 IQ: 96, IPC: 0.8093
TH2 ROB: 4 LSQ: 3 IQ: 0, IPC: 0.0014
TH3 ROB: 4 LSQ: 2 IQ: 0, IPC: 1.3791
EPOCH ENDS
EPOCH STARTS
TH0 ROB: 4 LSQ: 0 IQ: 0 IPC: 0.0014
TH1 ROB: 106 LSQ: 87 IQ: 96, IPC: 0.8194
TH2 ROB: 4 LSQ: 3 IQ: 0, IPC: 0.0014
TH3 ROB: 4 LSQ: 2 IQ: 0, IPC: 1.3691
EPOCH ENDS
EPOCH STARTS
TH0 ROB: 4 LSQ: 0 IQ: 0 IPC: 0.0014
TH1 ROB: 104 LSQ: 85 IQ: 96, IPC: 0.8292
TH2 ROB: 4 LSQ: 3 IQ: 0, IPC: 0.0014
TH3 ROB: 4 LSQ: 2 IQ: 0, IPC: 1.3591
EPOCH ENDS
EPOCH STARTS
TH0 ROB: 4 LSQ: 0 IQ: 0 IPC: 0.0014
TH1 ROB: 104 LSQ: 88 IQ: 96, IPC: 0.8390
TH2 ROB: 4 LSQ: 3 IQ: 0, IPC: 0.0014
TH3 ROB: 4 LSQ: 2 IQ: 0, IPC: 1.3494
EPOCH ENDS
EPOCH STARTS
TH0 ROB: 4 LSQ: 0 IQ: 0 IPC: 0.0014
TH1 ROB: 104 LSQ: 88 IQ: 96, IPC: 0.8486
TH2 ROB: 4 LSQ: 3 IQ: 0, IPC: 0.0014
TH3 ROB: 4 LSQ: 2 IQ: 0, IPC: 1.3397
EPOCH ENDS
EPOCH STARTS
TH0 ROB: 4 LSQ: 0 IQ: 0 IPC: 0.0014
TH1 ROB: 105 LSQ: 85 IQ: 96, IPC: 0.8580
TH2 ROB: 4 LSQ: 3 IQ: 0, IPC: 0.0014
TH3 ROB: 4 LSQ: 2 IQ: 0, IPC: 1.3302
EPOCH ENDS
EPOCH STARTS
TH0 ROB: 4 LSQ: 0 IQ: 0 IPC: 0.0014
TH1 ROB: 104 LSQ: 87 IQ: 96, IPC: 0.8673
TH2 ROB: 4 LSQ: 3 IQ: 0, IPC: 0.0014
TH3 ROB: 4 LSQ: 2 IQ: 0, IPC: 1.3209
EPOCH ENDS
EPOCH STARTS
TH0 ROB: 4 LSQ: 0 IQ: 0 IPC: 0.0014
TH1 ROB: 104 LSQ: 88 IQ: 96, IPC: 0.8765
TH2 ROB: 4 LSQ: 3 IQ: 0, IPC: 0.0014
TH3 ROB: 4 LSQ: 2 IQ: 0, IPC: 1.3116
EPOCH ENDS
EPOCH STARTS
TH0 ROB: 4 LSQ: 0 IQ: 0 IPC: 0.0014
TH1 ROB: 105 LSQ: 88 IQ: 96, IPC: 0.8856
TH2 ROB: 4 LSQ: 3 IQ: 0, IPC: 0.0014
TH3 ROB: 4 LSQ: 2 IQ: 0, IPC: 1.3025
EPOCH ENDS
EPOCH STARTS
TH0 ROB: 4 LSQ: 0 IQ: 0 IPC: 0.0013
TH1 ROB: 104 LSQ: 84 IQ: 96, IPC: 0.8945
TH2 ROB: 4 LSQ: 3 IQ: 0, IPC: 0.0013
TH3 ROB: 4 LSQ: 2 IQ: 0, IPC: 1.2935
EPOCH ENDS
EPOCH STARTS
TH0 ROB: 4 LSQ: 0 IQ: 0 IPC: 0.0013
TH1 ROB: 104 LSQ: 88 IQ: 96, IPC: 0.9033
TH2 ROB: 4 LSQ: 3 IQ: 0, IPC: 0.0013
TH3 ROB: 4 LSQ: 2 IQ: 0, IPC: 1.2847
EPOCH ENDS
EPOCH STARTS
TH0 ROB: 4 LSQ: 0 IQ: 0 IPC: 0.0013
TH1 ROB: 104 LSQ: 88 IQ: 96, IPC: 0.9120
TH2 ROB: 4 LSQ: 3 IQ: 0, IPC: 0.0013
TH3 ROB: 4 LSQ: 2 IQ: 0, IPC: 1.2759
EPOCH ENDS
EPOCH STARTS
TH0 ROB: 4 LSQ: 0 IQ: 0 IPC: 0.0013
TH1 ROB: 106 LSQ: 87 IQ: 96, IPC: 0.9206
TH2 ROB: 4 LSQ: 3 IQ: 0, IPC: 0.0013
TH3 ROB: 4 LSQ: 2 IQ: 0, IPC: 1.2673
EPOCH ENDS
EPOCH STARTS
TH0 ROB: 4 LSQ: 0 IQ: 0 IPC: 0.0013
TH1 ROB: 104 LSQ: 85 IQ: 96, IPC: 0.9291
TH2 ROB: 4 LSQ: 3 IQ: 0, IPC: 0.0013
TH3 ROB: 4 LSQ: 2 IQ: 0, IPC: 1.2588
EPOCH ENDS
EPOCH STARTS
TH0 ROB: 4 LSQ: 0 IQ: 0 IPC: 0.0013
TH1 ROB: 104 LSQ: 88 IQ: 96, IPC: 0.9374
TH2 ROB: 4 LSQ: 3 IQ: 0, IPC: 0.0013
TH3 ROB: 4 LSQ: 2 IQ: 0, IPC: 1.2504
EPOCH ENDS
EPOCH STARTS
TH0 ROB: 4 LSQ: 0 IQ: 0 IPC: 0.0013
TH1 ROB: 104 LSQ: 88 IQ: 96, IPC: 0.9457
TH2 ROB: 4 LSQ: 3 IQ: 0, IPC: 0.0013
TH3 ROB: 4 LSQ: 2 IQ: 0, IPC: 1.2421
EPOCH ENDS
EPOCH STARTS
TH0 ROB: 4 LSQ: 0 IQ: 0 IPC: 0.0013
TH1 ROB: 105 LSQ: 85 IQ: 96, IPC: 0.9538
TH2 ROB: 4 LSQ: 3 IQ: 0, IPC: 0.0013
TH3 ROB: 4 LSQ: 2 IQ: 0, IPC: 1.2340
EPOCH ENDS
EPOCH STARTS
TH0 ROB: 4 LSQ: 0 IQ: 0 IPC: 0.0013
TH1 ROB: 104 LSQ: 87 IQ: 96, IPC: 0.9618
TH2 ROB: 4 LSQ: 3 IQ: 0, IPC: 0.0013
TH3 ROB: 4 LSQ: 2 IQ: 0, IPC: 1.2259
EPOCH ENDS
EPOCH STARTS
TH0 ROB: 4 LSQ: 0 IQ: 0 IPC: 0.0013
TH1 ROB: 104 LSQ: 88 IQ: 96, IPC: 0.9698
TH2 ROB: 4 LSQ: 3 IQ: 0, IPC: 0.0013
TH3 ROB: 4 LSQ: 2 IQ: 0, IPC: 1.2179
EPOCH ENDS
EPOCH STARTS
TH0 ROB: 4 LSQ: 0 IQ: 0 IPC: 0.0013
TH1 ROB: 105 LSQ: 88 IQ: 96, IPC: 0.9776
TH2 ROB: 4 LSQ: 3 IQ: 0, IPC: 0.0013
TH3 ROB: 4 LSQ: 2 IQ: 0, IPC: 1.2101
EPOCH ENDS
EPOCH STARTS
TH0 ROB: 4 LSQ: 0 IQ: 0 IPC: 0.0013
TH1 ROB: 104 LSQ: 84 IQ: 96, IPC: 0.9853
TH2 ROB: 4 LSQ: 3 IQ: 0, IPC: 0.0013
TH3 ROB: 4 LSQ: 2 IQ: 0, IPC: 1.2023
EPOCH ENDS
EPOCH STARTS
TH0 ROB: 4 LSQ: 0 IQ: 0 IPC: 0.0012
TH1 ROB: 104 LSQ: 88 IQ: 96, IPC: 0.9929
TH2 ROB: 4 LSQ: 3 IQ: 0, IPC: 0.0012
TH3 ROB: 4 LSQ: 2 IQ: 0, IPC: 1.1947
EPOCH ENDS
EPOCH STARTS
TH0 ROB: 4 LSQ: 0 IQ: 0 IPC: 0.0012
TH1 ROB: 104 LSQ: 88 IQ: 96, IPC: 1.0004
TH2 ROB: 4 LSQ: 3 IQ: 0, IPC: 0.0012
TH3 ROB: 4 LSQ: 2 IQ: 0, IPC: 1.1871
EPOCH ENDS
EPOCH STARTS
TH0 ROB: 4 LSQ: 0 IQ: 0 IPC: 0.0012
TH1 ROB: 106 LSQ: 87 IQ: 96, IPC: 1.0079
TH2 ROB: 4 LSQ: 3 IQ: 0, IPC: 0.0012
TH3 ROB: 4 LSQ: 2 IQ: 0, IPC: 1.1796
EPOCH ENDS
EPOCH STARTS
TH0 ROB: 4 LSQ: 0 IQ: 0 IPC: 0.0012
TH1 ROB: 104 LSQ: 85 IQ: 96, IPC: 1.0152
TH2 ROB: 4 LSQ: 3 IQ: 0, IPC: 0.0012
TH3 ROB: 4 LSQ: 2 IQ: 0, IPC: 1.1723
EPOCH ENDS
EPOCH STARTS
TH0 ROB: 4 LSQ: 0 IQ: 0 IPC: 0.0012
TH1 ROB: 104 LSQ: 88 IQ: 96, IPC: 1.0225
TH2 ROB: 4 LSQ: 3 IQ: 0, IPC: 0.0012
TH3 ROB: 4 LSQ: 2 IQ: 0, IPC: 1.1650
EPOCH ENDS
EPOCH STARTS
TH0 ROB: 4 LSQ: 0 IQ: 0 IPC: 0.0012
TH1 ROB: 104 LSQ: 88 IQ: 96, IPC: 1.0296
TH2 ROB: 4 LSQ: 3 IQ: 0, IPC: 0.0012
TH3 ROB: 4 LSQ: 2 IQ: 0, IPC: 1.1578
EPOCH ENDS
EPOCH STARTS
TH0 ROB: 4 LSQ: 0 IQ: 0 IPC: 0.0012
TH1 ROB: 105 LSQ: 85 IQ: 96, IPC: 1.0367
TH2 ROB: 4 LSQ: 3 IQ: 0, IPC: 0.0012
TH3 ROB: 4 LSQ: 2 IQ: 0, IPC: 1.1507
EPOCH ENDS
EPOCH STARTS
TH0 ROB: 4 LSQ: 0 IQ: 0 IPC: 0.0012
TH1 ROB: 104 LSQ: 87 IQ: 96, IPC: 1.0437
TH2 ROB: 4 LSQ: 3 IQ: 0, IPC: 0.0012
TH3 ROB: 4 LSQ: 2 IQ: 0, IPC: 1.1437
EPOCH ENDS
EPOCH STARTS
TH0 ROB: 4 LSQ: 0 IQ: 0 IPC: 0.0012
TH1 ROB: 104 LSQ: 88 IQ: 96, IPC: 1.0506
TH2 ROB: 4 LSQ: 3 IQ: 0, IPC: 0.0012
TH3 ROB: 4 LSQ: 2 IQ: 0, IPC: 1.1367
EPOCH ENDS
EPOCH STARTS
TH0 ROB: 4 LSQ: 0 IQ: 0 IPC: 0.0012
TH1 ROB: 105 LSQ: 88 IQ: 96, IPC: 1.0574
TH2 ROB: 4 LSQ: 3 IQ: 0, IPC: 0.0012
TH3 ROB: 4 LSQ: 2 IQ: 0, IPC: 1.1299
EPOCH ENDS
EPOCH STARTS
TH0 ROB: 4 LSQ: 0 IQ: 0 IPC: 0.0012
TH1 ROB: 104 LSQ: 84 IQ: 96, IPC: 1.0641
TH2 ROB: 4 LSQ: 3 IQ: 0, IPC: 0.0012
TH3 ROB: 4 LSQ: 2 IQ: 0, IPC: 1.1231
EPOCH ENDS
EPOCH STARTS
TH0 ROB: 4 LSQ: 0 IQ: 0 IPC: 0.0012
TH1 ROB: 104 LSQ: 88 IQ: 96, IPC: 1.0708
TH2 ROB: 4 LSQ: 3 IQ: 0, IPC: 0.0012
TH3 ROB: 4 LSQ: 2 IQ: 0, IPC: 1.1164
EPOCH ENDS
EPOCH STARTS
TH0 ROB: 4 LSQ: 0 IQ: 0 IPC: 0.0012
TH1 ROB: 104 LSQ: 88 IQ: 96, IPC: 1.0773
TH2 ROB: 4 LSQ: 3 IQ: 0, IPC: 0.0012
TH3 ROB: 4 LSQ: 2 IQ: 0, IPC: 1.1098
EPOCH ENDS
EPOCH STARTS
TH0 ROB: 4 LSQ: 0 IQ: 0 IPC: 0.0012
TH1 ROB: 106 LSQ: 87 IQ: 96, IPC: 1.0838
TH2 ROB: 4 LSQ: 3 IQ: 0, IPC: 0.0011
TH3 ROB: 4 LSQ: 2 IQ: 0, IPC: 1.1033
EPOCH ENDS
EPOCH STARTS
TH0 ROB: 4 LSQ: 0 IQ: 0 IPC: 0.0011
TH1 ROB: 104 LSQ: 85 IQ: 96, IPC: 1.0903
TH2 ROB: 4 LSQ: 3 IQ: 0, IPC: 0.0011
TH3 ROB: 4 LSQ: 2 IQ: 0, IPC: 1.0969
EPOCH ENDS
EPOCH STARTS
TH0 ROB: 4 LSQ: 0 IQ: 0 IPC: 0.0011
TH1 ROB: 104 LSQ: 88 IQ: 96, IPC: 1.0966
TH2 ROB: 4 LSQ: 3 IQ: 0, IPC: 0.0011
TH3 ROB: 4 LSQ: 2 IQ: 0, IPC: 1.0905
EPOCH ENDS
EPOCH STARTS
TH0 ROB: 4 LSQ: 0 IQ: 0 IPC: 0.0011
TH1 ROB: 104 LSQ: 88 IQ: 96, IPC: 1.1029
TH2 ROB: 4 LSQ: 3 IQ: 0, IPC: 0.0011
TH3 ROB: 4 LSQ: 2 IQ: 0, IPC: 1.0842
EPOCH ENDS
EPOCH STARTS
TH0 ROB: 4 LSQ: 0 IQ: 0 IPC: 0.0011
TH1 ROB: 105 LSQ: 85 IQ: 96, IPC: 1.1091
TH2 ROB: 4 LSQ: 3 IQ: 0, IPC: 0.0011
TH3 ROB: 4 LSQ: 2 IQ: 0, IPC: 1.0779
EPOCH ENDS
EPOCH STARTS
TH0 ROB: 4 LSQ: 0 IQ: 0 IPC: 0.0011
TH1 ROB: 104 LSQ: 87 IQ: 96, IPC: 1.1152
TH2 ROB: 4 LSQ: 3 IQ: 0, IPC: 0.0011
TH3 ROB: 4 LSQ: 2 IQ: 0, IPC: 1.0718
EPOCH ENDS
EPOCH STARTS
TH0 ROB: 4 LSQ: 0 IQ: 0 IPC: 0.0011
TH1 ROB: 104 LSQ: 88 IQ: 96, IPC: 1.1213
TH2 ROB: 4 LSQ: 3 IQ: 0, IPC: 0.0011
TH3 ROB: 4 LSQ: 2 IQ: 0, IPC: 1.0657
EPOCH ENDS
EPOCH STARTS
TH0 ROB: 4 LSQ: 0 IQ: 0 IPC: 0.0011
TH1 ROB: 105 LSQ: 88 IQ: 96, IPC: 1.1273
TH2 ROB: 4 LSQ: 3 IQ: 0, IPC: 0.0011
TH3 ROB: 4 LSQ: 2 IQ: 0, IPC: 1.0597
EPOCH ENDS
EPOCH STARTS
TH0 ROB: 4 LSQ: 0 IQ: 0 IPC: 0.0011
TH1 ROB: 104 LSQ: 84 IQ: 96, IPC: 1.1332
TH2 ROB: 4 LSQ: 3 IQ: 0, IPC: 0.0011
TH3 ROB: 4 LSQ: 2 IQ: 0, IPC: 1.0537
EPOCH ENDS
EPOCH STARTS
TH0 ROB: 4 LSQ: 0 IQ: 0 IPC: 0.0011
TH1 ROB: 104 LSQ: 88 IQ: 96, IPC: 1.1390
TH2 ROB: 4 LSQ: 3 IQ: 0, IPC: 0.0011
TH3 ROB: 4 LSQ: 2 IQ: 0, IPC: 1.0478
EPOCH ENDS
EPOCH STARTS
TH0 ROB: 4 LSQ: 0 IQ: 0 IPC: 0.0011
TH1 ROB: 104 LSQ: 88 IQ: 96, IPC: 1.1448
TH2 ROB: 4 LSQ: 3 IQ: 0, IPC: 0.0011
TH3 ROB: 4 LSQ: 2 IQ: 0, IPC: 1.0420
EPOCH ENDS
EPOCH STARTS
TH0 ROB: 4 LSQ: 0 IQ: 0 IPC: 0.0011
TH1 ROB: 106 LSQ: 87 IQ: 96, IPC: 1.1506
TH2 ROB: 4 LSQ: 3 IQ: 0, IPC: 0.0011
TH3 ROB: 4 LSQ: 2 IQ: 0, IPC: 1.0363
EPOCH ENDS
EPOCH STARTS
TH0 ROB: 4 LSQ: 0 IQ: 0 IPC: 0.0011
TH1 ROB: 104 LSQ: 85 IQ: 96, IPC: 1.1562
TH2 ROB: 4 LSQ: 3 IQ: 0, IPC: 0.0011
TH3 ROB: 4 LSQ: 2 IQ: 0, IPC: 1.0306
EPOCH ENDS
EPOCH STARTS
TH0 ROB: 4 LSQ: 0 IQ: 0 IPC: 0.0011
TH1 ROB: 104 LSQ: 88 IQ: 96, IPC: 1.1618
TH2 ROB: 4 LSQ: 3 IQ: 0, IPC: 0.0011
TH3 ROB: 4 LSQ: 2 IQ: 0, IPC: 1.0249
EPOCH ENDS
EPOCH STARTS
TH0 ROB: 4 LSQ: 0 IQ: 0 IPC: 0.0011
TH1 ROB: 104 LSQ: 88 IQ: 96, IPC: 1.1674
TH2 ROB: 4 LSQ: 3 IQ: 0, IPC: 0.0011
TH3 ROB: 4 LSQ: 2 IQ: 0, IPC: 1.0194
EPOCH ENDS
EPOCH STARTS
TH0 ROB: 4 LSQ: 0 IQ: 0 IPC: 0.0011
TH1 ROB: 105 LSQ: 85 IQ: 96, IPC: 1.1729
TH2 ROB: 4 LSQ: 3 IQ: 0, IPC: 0.0011
TH3 ROB: 4 LSQ: 2 IQ: 0, IPC: 1.0139
EPOCH ENDS
EPOCH STARTS
TH0 ROB: 4 LSQ: 0 IQ: 0 IPC: 0.0011
TH1 ROB: 104 LSQ: 87 IQ: 96, IPC: 1.1783
TH2 ROB: 4 LSQ: 3 IQ: 0, IPC: 0.0010
TH3 ROB: 4 LSQ: 2 IQ: 0, IPC: 1.0084
EPOCH ENDS
EPOCH STARTS
TH0 ROB: 4 LSQ: 0 IQ: 0 IPC: 0.0010
TH1 ROB: 104 LSQ: 88 IQ: 96, IPC: 1.1837
TH2 ROB: 4 LSQ: 3 IQ: 0, IPC: 0.0010
TH3 ROB: 4 LSQ: 2 IQ: 0, IPC: 1.0030
EPOCH ENDS
EPOCH STARTS
TH0 ROB: 4 LSQ: 0 IQ: 0 IPC: 0.0010
TH1 ROB: 105 LSQ: 88 IQ: 96, IPC: 1.1890
TH2 ROB: 4 LSQ: 3 IQ: 0, IPC: 0.0010
TH3 ROB: 4 LSQ: 2 IQ: 0, IPC: 0.9977
EPOCH ENDS
EPOCH STARTS
TH0 ROB: 4 LSQ: 0 IQ: 0 IPC: 0.0010
TH1 ROB: 104 LSQ: 84 IQ: 96, IPC: 1.1942
TH2 ROB: 4 LSQ: 3 IQ: 0, IPC: 0.0010
TH3 ROB: 4 LSQ: 2 IQ: 0, IPC: 0.9924
EPOCH ENDS
EPOCH STARTS
TH0 ROB: 4 LSQ: 0 IQ: 0 IPC: 0.0010
TH1 ROB: 104 LSQ: 88 IQ: 96, IPC: 1.1994
TH2 ROB: 4 LSQ: 3 IQ: 0, IPC: 0.0010
TH3 ROB: 4 LSQ: 2 IQ: 0, IPC: 0.9872
EPOCH ENDS
EPOCH STARTS
TH0 ROB: 4 LSQ: 0 IQ: 0 IPC: 0.0010
TH1 ROB: 104 LSQ: 88 IQ: 96, IPC: 1.2046
TH2 ROB: 4 LSQ: 3 IQ: 0, IPC: 0.0010
TH3 ROB: 4 LSQ: 2 IQ: 0, IPC: 0.9820
EPOCH ENDS
EPOCH STARTS
TH0 ROB: 4 LSQ: 0 IQ: 0 IPC: 0.0010
TH1 ROB: 106 LSQ: 87 IQ: 96, IPC: 1.2096
TH2 ROB: 4 LSQ: 3 IQ: 0, IPC: 0.0010
TH3 ROB: 4 LSQ: 2 IQ: 0, IPC: 0.9769
EPOCH ENDS
EPOCH STARTS
TH0 ROB: 4 LSQ: 0 IQ: 0 IPC: 0.0010
TH1 ROB: 104 LSQ: 85 IQ: 96, IPC: 1.2147
TH2 ROB: 4 LSQ: 3 IQ: 0, IPC: 0.0010
TH3 ROB: 4 LSQ: 2 IQ: 0, IPC: 0.9718
EPOCH ENDS
EPOCH STARTS
TH0 ROB: 4 LSQ: 0 IQ: 0 IPC: 0.0010
TH1 ROB: 104 LSQ: 88 IQ: 96, IPC: 1.2197
TH2 ROB: 4 LSQ: 3 IQ: 0, IPC: 0.0010
TH3 ROB: 4 LSQ: 2 IQ: 0, IPC: 0.9668
EPOCH ENDS
EPOCH STARTS
TH0 ROB: 4 LSQ: 0 IQ: 0 IPC: 0.0010
TH1 ROB: 104 LSQ: 88 IQ: 96, IPC: 1.2246
TH2 ROB: 4 LSQ: 3 IQ: 0, IPC: 0.0010
TH3 ROB: 4 LSQ: 2 IQ: 0, IPC: 0.9619
EPOCH ENDS
EPOCH STARTS
TH0 ROB: 4 LSQ: 0 IQ: 0 IPC: 0.0010
TH1 ROB: 105 LSQ: 85 IQ: 96, IPC: 1.2295
TH2 ROB: 4 LSQ: 3 IQ: 0, IPC: 0.0010
TH3 ROB: 4 LSQ: 2 IQ: 0, IPC: 0.9570
EPOCH ENDS
EPOCH STARTS
TH0 ROB: 4 LSQ: 0 IQ: 0 IPC: 0.0010
TH1 ROB: 104 LSQ: 87 IQ: 96, IPC: 1.2343
TH2 ROB: 4 LSQ: 3 IQ: 0, IPC: 0.0010
TH3 ROB: 4 LSQ: 2 IQ: 0, IPC: 0.9521
EPOCH ENDS
EPOCH STARTS
TH0 ROB: 4 LSQ: 0 IQ: 0 IPC: 0.0010
TH1 ROB: 104 LSQ: 88 IQ: 96, IPC: 1.2391
TH2 ROB: 4 LSQ: 3 IQ: 0, IPC: 0.0010
TH3 ROB: 4 LSQ: 2 IQ: 0, IPC: 0.9473
EPOCH ENDS
EPOCH STARTS
TH0 ROB: 4 LSQ: 0 IQ: 0 IPC: 0.0010
TH1 ROB: 105 LSQ: 88 IQ: 96, IPC: 1.2438
TH2 ROB: 4 LSQ: 3 IQ: 0, IPC: 0.0010
TH3 ROB: 4 LSQ: 2 IQ: 0, IPC: 0.9425
EPOCH ENDS
EPOCH STARTS
TH0 ROB: 4 LSQ: 0 IQ: 0 IPC: 0.0010
TH1 ROB: 104 LSQ: 84 IQ: 96, IPC: 1.2485
TH2 ROB: 4 LSQ: 3 IQ: 0, IPC: 0.0010
TH3 ROB: 4 LSQ: 2 IQ: 0, IPC: 0.9378
EPOCH ENDS
EPOCH STARTS
TH0 ROB: 4 LSQ: 0 IQ: 0 IPC: 0.0010
TH1 ROB: 104 LSQ: 88 IQ: 96, IPC: 1.2532
TH2 ROB: 4 LSQ: 3 IQ: 0, IPC: 0.0010
TH3 ROB: 4 LSQ: 2 IQ: 0, IPC: 0.9331
EPOCH ENDS
EPOCH STARTS
TH0 ROB: 4 LSQ: 0 IQ: 0 IPC: 0.0010
TH1 ROB: 104 LSQ: 88 IQ: 96, IPC: 1.2578
TH2 ROB: 4 LSQ: 3 IQ: 0, IPC: 0.0010
TH3 ROB: 4 LSQ: 2 IQ: 0, IPC: 0.9285
EPOCH ENDS
EPOCH STARTS
TH0 ROB: 4 LSQ: 0 IQ: 0 IPC: 0.0010
TH1 ROB: 106 LSQ: 87 IQ: 96, IPC: 1.2623
TH2 ROB: 4 LSQ: 3 IQ: 0, IPC: 0.0010
TH3 ROB: 4 LSQ: 2 IQ: 0, IPC: 0.9240
EPOCH ENDS
EPOCH STARTS
TH0 ROB: 4 LSQ: 0 IQ: 0 IPC: 0.0010
TH1 ROB: 104 LSQ: 85 IQ: 96, IPC: 1.2668
TH2 ROB: 4 LSQ: 3 IQ: 0, IPC: 0.0010
TH3 ROB: 4 LSQ: 2 IQ: 0, IPC: 0.9194
EPOCH ENDS
EPOCH STARTS
TH0 ROB: 4 LSQ: 0 IQ: 0 IPC: 0.0010
TH1 ROB: 104 LSQ: 88 IQ: 96, IPC: 1.2713
TH2 ROB: 4 LSQ: 3 IQ: 0, IPC: 0.0010
TH3 ROB: 4 LSQ: 2 IQ: 0, IPC: 0.9149
EPOCH ENDS
EPOCH STARTS
TH0 ROB: 4 LSQ: 0 IQ: 0 IPC: 0.0009
TH1 ROB: 104 LSQ: 88 IQ: 96, IPC: 1.2757
TH2 ROB: 4 LSQ: 3 IQ: 0, IPC: 0.0009
TH3 ROB: 4 LSQ: 2 IQ: 0, IPC: 0.9105
EPOCH ENDS
EPOCH STARTS
TH0 ROB: 4 LSQ: 0 IQ: 0 IPC: 0.0009
TH1 ROB: 105 LSQ: 85 IQ: 96, IPC: 1.2801
TH2 ROB: 4 LSQ: 3 IQ: 0, IPC: 0.0009
TH3 ROB: 4 LSQ: 2 IQ: 0, IPC: 0.9061
EPOCH ENDS
EPOCH STARTS
TH0 ROB: 4 LSQ: 0 IQ: 0 IPC: 0.0009
TH1 ROB: 104 LSQ: 87 IQ: 96, IPC: 1.2844
TH2 ROB: 4 LSQ: 3 IQ: 0, IPC: 0.0009
TH3 ROB: 4 LSQ: 2 IQ: 0, IPC: 0.9017
EPOCH ENDS
EPOCH STARTS
TH0 ROB: 4 LSQ: 0 IQ: 0 IPC: 0.0009
TH1 ROB: 104 LSQ: 88 IQ: 96, IPC: 1.2887
TH2 ROB: 4 LSQ: 3 IQ: 0, IPC: 0.0009
TH3 ROB: 4 LSQ: 2 IQ: 0, IPC: 0.8974
EPOCH ENDS
EPOCH STARTS
TH0 ROB: 4 LSQ: 0 IQ: 0 IPC: 0.0009
TH1 ROB: 105 LSQ: 88 IQ: 96, IPC: 1.2930
TH2 ROB: 4 LSQ: 3 IQ: 0, IPC: 0.0009
TH3 ROB: 4 LSQ: 2 IQ: 0, IPC: 0.8932
EPOCH ENDS
EPOCH STARTS
TH0 ROB: 4 LSQ: 0 IQ: 0 IPC: 0.0009
TH1 ROB: 104 LSQ: 84 IQ: 96, IPC: 1.2972
TH2 ROB: 4 LSQ: 3 IQ: 0, IPC: 0.0009
TH3 ROB: 4 LSQ: 2 IQ: 0, IPC: 0.8889
EPOCH ENDS
EPOCH STARTS
TH0 ROB: 4 LSQ: 0 IQ: 0 IPC: 0.0009
TH1 ROB: 104 LSQ: 88 IQ: 96, IPC: 1.3014
TH2 ROB: 4 LSQ: 3 IQ: 0, IPC: 0.0009
TH3 ROB: 4 LSQ: 2 IQ: 0, IPC: 0.8847
EPOCH ENDS
EPOCH STARTS
TH0 ROB: 4 LSQ: 0 IQ: 0 IPC: 0.0009
TH1 ROB: 104 LSQ: 88 IQ: 96, IPC: 1.3055
TH2 ROB: 4 LSQ: 3 IQ: 0, IPC: 0.0009
TH3 ROB: 4 LSQ: 2 IQ: 0, IPC: 0.8806
EPOCH ENDS
EPOCH STARTS
TH0 ROB: 4 LSQ: 0 IQ: 0 IPC: 0.0009
TH1 ROB: 106 LSQ: 87 IQ: 96, IPC: 1.3096
TH2 ROB: 4 LSQ: 3 IQ: 0, IPC: 0.0009
TH3 ROB: 4 LSQ: 2 IQ: 0, IPC: 0.8765
EPOCH ENDS
EPOCH STARTS
TH0 ROB: 4 LSQ: 0 IQ: 0 IPC: 0.0009
TH1 ROB: 104 LSQ: 85 IQ: 96, IPC: 1.3136
TH2 ROB: 4 LSQ: 3 IQ: 0, IPC: 0.0009
TH3 ROB: 4 LSQ: 2 IQ: 0, IPC: 0.8724
EPOCH ENDS
EPOCH STARTS
TH0 ROB: 4 LSQ: 0 IQ: 0 IPC: 0.0009
TH1 ROB: 104 LSQ: 88 IQ: 96, IPC: 1.3177
TH2 ROB: 4 LSQ: 3 IQ: 0, IPC: 0.0009
TH3 ROB: 4 LSQ: 2 IQ: 0, IPC: 0.8683
EPOCH ENDS
EPOCH STARTS
TH0 ROB: 4 LSQ: 0 IQ: 0 IPC: 0.0009
TH1 ROB: 104 LSQ: 88 IQ: 96, IPC: 1.3216
TH2 ROB: 4 LSQ: 3 IQ: 0, IPC: 0.0009
TH3 ROB: 4 LSQ: 2 IQ: 0, IPC: 0.8643
EPOCH ENDS
EPOCH STARTS
TH0 ROB: 4 LSQ: 0 IQ: 0 IPC: 0.0009
TH1 ROB: 105 LSQ: 85 IQ: 96, IPC: 1.3256
TH2 ROB: 4 LSQ: 3 IQ: 0, IPC: 0.0009
TH3 ROB: 4 LSQ: 2 IQ: 0, IPC: 0.8604
EPOCH ENDS
EPOCH STARTS
TH0 ROB: 4 LSQ: 0 IQ: 0 IPC: 0.0009
TH1 ROB: 104 LSQ: 87 IQ: 96, IPC: 1.3295
TH2 ROB: 4 LSQ: 3 IQ: 0, IPC: 0.0009
TH3 ROB: 4 LSQ: 2 IQ: 0, IPC: 0.8564
EPOCH ENDS
EPOCH STARTS
TH0 ROB: 4 LSQ: 0 IQ: 0 IPC: 0.0009
TH1 ROB: 104 LSQ: 88 IQ: 96, IPC: 1.3334
TH2 ROB: 4 LSQ: 3 IQ: 0, IPC: 0.0009
TH3 ROB: 4 LSQ: 2 IQ: 0, IPC: 0.8526
EPOCH ENDS
EPOCH STARTS
TH0 ROB: 4 LSQ: 0 IQ: 0 IPC: 0.0009
TH1 ROB: 105 LSQ: 88 IQ: 96, IPC: 1.3372
TH2 ROB: 4 LSQ: 3 IQ: 0, IPC: 0.0009
TH3 ROB: 4 LSQ: 2 IQ: 0, IPC: 0.8487
EPOCH ENDS
EPOCH STARTS
TH0 ROB: 4 LSQ: 0 IQ: 0 IPC: 0.0009
TH1 ROB: 104 LSQ: 84 IQ: 96, IPC: 1.3410
TH2 ROB: 4 LSQ: 3 IQ: 0, IPC: 0.0009
TH3 ROB: 4 LSQ: 2 IQ: 0, IPC: 0.8449
EPOCH ENDS
EPOCH STARTS
TH0 ROB: 4 LSQ: 0 IQ: 0 IPC: 0.0009
TH1 ROB: 104 LSQ: 88 IQ: 96, IPC: 1.3448
TH2 ROB: 4 LSQ: 3 IQ: 0, IPC: 0.0009
TH3 ROB: 4 LSQ: 2 IQ: 0, IPC: 0.8411
EPOCH ENDS
EPOCH STARTS
TH0 ROB: 4 LSQ: 0 IQ: 0 IPC: 0.0009
TH1 ROB: 104 LSQ: 88 IQ: 96, IPC: 1.3485
TH2 ROB: 4 LSQ: 3 IQ: 0, IPC: 0.0009
TH3 ROB: 4 LSQ: 2 IQ: 0, IPC: 0.8373
EPOCH ENDS
EPOCH STARTS
TH0 ROB: 4 LSQ: 0 IQ: 0 IPC: 0.0009
TH1 ROB: 106 LSQ: 87 IQ: 96, IPC: 1.3522
TH2 ROB: 4 LSQ: 3 IQ: 0, IPC: 0.0009
TH3 ROB: 4 LSQ: 2 IQ: 0, IPC: 0.8336
EPOCH ENDS
EPOCH STARTS
TH0 ROB: 4 LSQ: 0 IQ: 0 IPC: 0.0009
TH1 ROB: 104 LSQ: 85 IQ: 96, IPC: 1.3559
TH2 ROB: 4 LSQ: 3 IQ: 0, IPC: 0.0009
TH3 ROB: 4 LSQ: 2 IQ: 0, IPC: 0.8299
EPOCH ENDS
EPOCH STARTS
TH0 ROB: 4 LSQ: 0 IQ: 0 IPC: 0.0009
TH1 ROB: 104 LSQ: 88 IQ: 96, IPC: 1.3595
TH2 ROB: 4 LSQ: 3 IQ: 0, IPC: 0.0009
TH3 ROB: 4 LSQ: 2 IQ: 0, IPC: 0.8263
EPOCH ENDS
EPOCH STARTS
TH0 ROB: 4 LSQ: 0 IQ: 0 IPC: 0.0009
TH1 ROB: 104 LSQ: 88 IQ: 96, IPC: 1.3631
TH2 ROB: 4 LSQ: 3 IQ: 0, IPC: 0.0009
TH3 ROB: 4 LSQ: 2 IQ: 0, IPC: 0.8226
EPOCH ENDS
EPOCH STARTS
TH0 ROB: 4 LSQ: 0 IQ: 0 IPC: 0.0009
TH1 ROB: 105 LSQ: 85 IQ: 96, IPC: 1.3667
TH2 ROB: 4 LSQ: 3 IQ: 0, IPC: 0.0009
TH3 ROB: 4 LSQ: 2 IQ: 0, IPC: 0.8190
EPOCH ENDS
EPOCH STARTS
TH0 ROB: 4 LSQ: 0 IQ: 0 IPC: 0.0009
TH1 ROB: 104 LSQ: 87 IQ: 96, IPC: 1.3703
TH2 ROB: 4 LSQ: 3 IQ: 0, IPC: 0.0008
TH3 ROB: 4 LSQ: 2 IQ: 0, IPC: 0.8155
EPOCH ENDS
EPOCH STARTS
TH0 ROB: 4 LSQ: 0 IQ: 0 IPC: 0.0008
TH1 ROB: 104 LSQ: 88 IQ: 96, IPC: 1.3738
TH2 ROB: 4 LSQ: 3 IQ: 0, IPC: 0.0008
TH3 ROB: 4 LSQ: 2 IQ: 0, IPC: 0.8120
EPOCH ENDS
EPOCH STARTS
TH0 ROB: 4 LSQ: 0 IQ: 0 IPC: 0.0008
TH1 ROB: 105 LSQ: 88 IQ: 96, IPC: 1.3773
TH2 ROB: 4 LSQ: 3 IQ: 0, IPC: 0.0008
TH3 ROB: 4 LSQ: 2 IQ: 0, IPC: 0.8085
EPOCH ENDS
EPOCH STARTS
TH0 ROB: 4 LSQ: 0 IQ: 0 IPC: 0.0008
TH1 ROB: 104 LSQ: 84 IQ: 96, IPC: 1.3807
TH2 ROB: 4 LSQ: 3 IQ: 0, IPC: 0.0008
TH3 ROB: 4 LSQ: 2 IQ: 0, IPC: 0.8050
EPOCH ENDS
EPOCH STARTS
TH0 ROB: 4 LSQ: 0 IQ: 0 IPC: 0.0008
TH1 ROB: 104 LSQ: 88 IQ: 96, IPC: 1.3841
TH2 ROB: 4 LSQ: 3 IQ: 0, IPC: 0.0008
TH3 ROB: 4 LSQ: 2 IQ: 0, IPC: 0.8015
EPOCH ENDS
EPOCH STARTS
TH0 ROB: 4 LSQ: 0 IQ: 0 IPC: 0.0008
TH1 ROB: 104 LSQ: 88 IQ: 96, IPC: 1.3875
TH2 ROB: 4 LSQ: 3 IQ: 0, IPC: 0.0008
TH3 ROB: 4 LSQ: 2 IQ: 0, IPC: 0.7981
EPOCH ENDS
EPOCH STARTS
TH0 ROB: 4 LSQ: 0 IQ: 0 IPC: 0.0008
TH1 ROB: 106 LSQ: 87 IQ: 96, IPC: 1.3909
TH2 ROB: 4 LSQ: 3 IQ: 0, IPC: 0.0008
TH3 ROB: 4 LSQ: 2 IQ: 0, IPC: 0.7948
EPOCH ENDS
EPOCH STARTS
TH0 ROB: 4 LSQ: 0 IQ: 0 IPC: 0.0008
TH1 ROB: 104 LSQ: 85 IQ: 96, IPC: 1.3942
TH2 ROB: 4 LSQ: 3 IQ: 0, IPC: 0.0008
TH3 ROB: 4 LSQ: 2 IQ: 0, IPC: 0.7914
EPOCH ENDS
EPOCH STARTS
TH0 ROB: 4 LSQ: 0 IQ: 0 IPC: 0.0008
TH1 ROB: 104 LSQ: 88 IQ: 96, IPC: 1.3975
TH2 ROB: 4 LSQ: 3 IQ: 0, IPC: 0.0008
TH3 ROB: 4 LSQ: 2 IQ: 0, IPC: 0.7881
EPOCH ENDS
EPOCH STARTS
TH0 ROB: 4 LSQ: 0 IQ: 0 IPC: 0.0008
TH1 ROB: 104 LSQ: 88 IQ: 96, IPC: 1.4008
TH2 ROB: 4 LSQ: 3 IQ: 0, IPC: 0.0008
TH3 ROB: 4 LSQ: 2 IQ: 0, IPC: 0.7848
EPOCH ENDS
EPOCH STARTS
TH0 ROB: 4 LSQ: 0 IQ: 0 IPC: 0.0008
TH1 ROB: 105 LSQ: 85 IQ: 96, IPC: 1.4041
TH2 ROB: 4 LSQ: 3 IQ: 0, IPC: 0.0008
TH3 ROB: 4 LSQ: 2 IQ: 0, IPC: 0.7815
EPOCH ENDS
EPOCH STARTS
TH0 ROB: 4 LSQ: 0 IQ: 0 IPC: 0.0008
TH1 ROB: 104 LSQ: 87 IQ: 96, IPC: 1.4073
TH2 ROB: 4 LSQ: 3 IQ: 0, IPC: 0.0008
TH3 ROB: 4 LSQ: 2 IQ: 0, IPC: 0.7783
EPOCH ENDS
EPOCH STARTS
TH0 ROB: 4 LSQ: 0 IQ: 0 IPC: 0.0008
TH1 ROB: 104 LSQ: 88 IQ: 96, IPC: 1.4105
TH2 ROB: 4 LSQ: 3 IQ: 0, IPC: 0.0008
TH3 ROB: 4 LSQ: 2 IQ: 0, IPC: 0.7751
EPOCH ENDS
EPOCH STARTS
TH0 ROB: 4 LSQ: 0 IQ: 0 IPC: 0.0008
TH1 ROB: 105 LSQ: 88 IQ: 96, IPC: 1.4137
TH2 ROB: 4 LSQ: 3 IQ: 0, IPC: 0.0008
TH3 ROB: 4 LSQ: 2 IQ: 0, IPC: 0.7719
EPOCH ENDS
EPOCH STARTS
TH0 ROB: 4 LSQ: 0 IQ: 0 IPC: 0.0008
TH1 ROB: 104 LSQ: 84 IQ: 96, IPC: 1.4168
TH2 ROB: 4 LSQ: 3 IQ: 0, IPC: 0.0008
TH3 ROB: 4 LSQ: 2 IQ: 0, IPC: 0.7687
EPOCH ENDS
EPOCH STARTS
TH0 ROB: 4 LSQ: 0 IQ: 0 IPC: 0.0008
TH1 ROB: 104 LSQ: 88 IQ: 96, IPC: 1.4200
TH2 ROB: 4 LSQ: 3 IQ: 0, IPC: 0.0008
TH3 ROB: 4 LSQ: 2 IQ: 0, IPC: 0.7656
EPOCH ENDS
EPOCH STARTS
TH0 ROB: 4 LSQ: 0 IQ: 0 IPC: 0.0008
TH1 ROB: 104 LSQ: 88 IQ: 96, IPC: 1.4230
TH2 ROB: 4 LSQ: 3 IQ: 0, IPC: 0.0008
TH3 ROB: 4 LSQ: 2 IQ: 0, IPC: 0.7624
EPOCH ENDS
EPOCH STARTS
TH0 ROB: 4 LSQ: 0 IQ: 0 IPC: 0.0008
TH1 ROB: 106 LSQ: 87 IQ: 96, IPC: 1.4261
TH2 ROB: 4 LSQ: 3 IQ: 0, IPC: 0.0008
TH3 ROB: 4 LSQ: 2 IQ: 0, IPC: 0.7594
EPOCH ENDS
EPOCH STARTS
TH0 ROB: 4 LSQ: 0 IQ: 0 IPC: 0.0008
TH1 ROB: 104 LSQ: 85 IQ: 96, IPC: 1.4292
TH2 ROB: 4 LSQ: 3 IQ: 0, IPC: 0.0008
TH3 ROB: 4 LSQ: 2 IQ: 0, IPC: 0.7563
EPOCH ENDS
EPOCH STARTS
TH0 ROB: 4 LSQ: 0 IQ: 0 IPC: 0.0008
TH1 ROB: 104 LSQ: 88 IQ: 96, IPC: 1.4322
TH2 ROB: 4 LSQ: 3 IQ: 0, IPC: 0.0008
TH3 ROB: 4 LSQ: 2 IQ: 0, IPC: 0.7533
EPOCH ENDS
EPOCH STARTS
TH0 ROB: 4 LSQ: 0 IQ: 0 IPC: 0.0008
TH1 ROB: 104 LSQ: 88 IQ: 96, IPC: 1.4352
TH2 ROB: 4 LSQ: 3 IQ: 0, IPC: 0.0008
TH3 ROB: 4 LSQ: 2 IQ: 0, IPC: 0.7502
EPOCH ENDS
EPOCH STARTS
TH0 ROB: 4 LSQ: 0 IQ: 0 IPC: 0.0008
TH1 ROB: 105 LSQ: 85 IQ: 96, IPC: 1.4382
TH2 ROB: 4 LSQ: 3 IQ: 0, IPC: 0.0008
TH3 ROB: 4 LSQ: 2 IQ: 0, IPC: 0.7473
EPOCH ENDS
EPOCH STARTS
TH0 ROB: 4 LSQ: 0 IQ: 0 IPC: 0.0008
TH1 ROB: 104 LSQ: 87 IQ: 96, IPC: 1.4411
TH2 ROB: 4 LSQ: 3 IQ: 0, IPC: 0.0008
TH3 ROB: 4 LSQ: 2 IQ: 0, IPC: 0.7443
EPOCH ENDS
EPOCH STARTS
TH0 ROB: 4 LSQ: 0 IQ: 0 IPC: 0.0008
TH1 ROB: 104 LSQ: 88 IQ: 96, IPC: 1.4440
TH2 ROB: 4 LSQ: 3 IQ: 0, IPC: 0.0008
TH3 ROB: 4 LSQ: 2 IQ: 0, IPC: 0.7414
EPOCH ENDS
EPOCH STARTS
TH0 ROB: 4 LSQ: 0 IQ: 0 IPC: 0.0008
TH1 ROB: 105 LSQ: 88 IQ: 96, IPC: 1.4469
TH2 ROB: 4 LSQ: 3 IQ: 0, IPC: 0.0008
TH3 ROB: 4 LSQ: 2 IQ: 0, IPC: 0.7384
EPOCH ENDS
EPOCH STARTS
TH0 ROB: 4 LSQ: 0 IQ: 0 IPC: 0.0008
TH1 ROB: 104 LSQ: 84 IQ: 96, IPC: 1.4498
TH2 ROB: 4 LSQ: 3 IQ: 0, IPC: 0.0008
TH3 ROB: 4 LSQ: 2 IQ: 0, IPC: 0.7355
EPOCH ENDS
EPOCH STARTS
TH0 ROB: 4 LSQ: 0 IQ: 0 IPC: 0.0008
TH1 ROB: 104 LSQ: 88 IQ: 96, IPC: 1.4527
TH2 ROB: 4 LSQ: 3 IQ: 0, IPC: 0.0008
TH3 ROB: 4 LSQ: 2 IQ: 0, IPC: 0.7327
EPOCH ENDS
EPOCH STARTS
TH0 ROB: 4 LSQ: 0 IQ: 0 IPC: 0.0008
TH1 ROB: 104 LSQ: 88 IQ: 96, IPC: 1.4555
TH2 ROB: 4 LSQ: 3 IQ: 0, IPC: 0.0008
TH3 ROB: 4 LSQ: 2 IQ: 0, IPC: 0.7298
EPOCH ENDS
EPOCH STARTS
TH0 ROB: 4 LSQ: 0 IQ: 0 IPC: 0.0008
TH1 ROB: 106 LSQ: 87 IQ: 96, IPC: 1.4583
TH2 ROB: 4 LSQ: 3 IQ: 0, IPC: 0.0008
TH3 ROB: 4 LSQ: 2 IQ: 0, IPC: 0.7270
EPOCH ENDS
EPOCH STARTS
TH0 ROB: 4 LSQ: 0 IQ: 0 IPC: 0.0008
TH1 ROB: 104 LSQ: 85 IQ: 96, IPC: 1.4611
TH2 ROB: 4 LSQ: 3 IQ: 0, IPC: 0.0008
TH3 ROB: 4 LSQ: 2 IQ: 0, IPC: 0.7242
EPOCH ENDS
EPOCH STARTS
TH0 ROB: 4 LSQ: 0 IQ: 0 IPC: 0.0008
TH1 ROB: 104 LSQ: 88 IQ: 96, IPC: 1.4639
TH2 ROB: 4 LSQ: 3 IQ: 0, IPC: 0.0008
TH3 ROB: 4 LSQ: 2 IQ: 0, IPC: 0.7214
EPOCH ENDS
EPOCH STARTS
TH0 ROB: 4 LSQ: 0 IQ: 0 IPC: 0.0007
TH1 ROB: 104 LSQ: 88 IQ: 96, IPC: 1.4667
TH2 ROB: 4 LSQ: 3 IQ: 0, IPC: 0.0007
TH3 ROB: 4 LSQ: 2 IQ: 0, IPC: 0.7186
EPOCH ENDS
EPOCH STARTS
TH0 ROB: 4 LSQ: 0 IQ: 0 IPC: 0.0007
TH1 ROB: 105 LSQ: 85 IQ: 96, IPC: 1.4694
TH2 ROB: 4 LSQ: 3 IQ: 0, IPC: 0.0007
TH3 ROB: 4 LSQ: 2 IQ: 0, IPC: 0.7159
EPOCH ENDS
EPOCH STARTS
TH0 ROB: 4 LSQ: 0 IQ: 0 IPC: 0.0007
TH1 ROB: 104 LSQ: 87 IQ: 96, IPC: 1.4721
TH2 ROB: 4 LSQ: 3 IQ: 0, IPC: 0.0007
TH3 ROB: 4 LSQ: 2 IQ: 0, IPC: 0.7132
EPOCH ENDS
EPOCH STARTS
TH0 ROB: 4 LSQ: 0 IQ: 0 IPC: 0.0007
TH1 ROB: 104 LSQ: 88 IQ: 96, IPC: 1.4748
TH2 ROB: 4 LSQ: 3 IQ: 0, IPC: 0.0007
TH3 ROB: 4 LSQ: 2 IQ: 0, IPC: 0.7105
EPOCH ENDS
EPOCH STARTS
TH0 ROB: 4 LSQ: 0 IQ: 0 IPC: 0.0007
TH1 ROB: 105 LSQ: 88 IQ: 96, IPC: 1.4775
TH2 ROB: 4 LSQ: 3 IQ: 0, IPC: 0.0007
TH3 ROB: 4 LSQ: 2 IQ: 0, IPC: 0.7078
EPOCH ENDS
EPOCH STARTS
TH0 ROB: 4 LSQ: 0 IQ: 0 IPC: 0.0007
TH1 ROB: 104 LSQ: 84 IQ: 96, IPC: 1.4801
TH2 ROB: 4 LSQ: 3 IQ: 0, IPC: 0.0007
TH3 ROB: 4 LSQ: 2 IQ: 0, IPC: 0.7051
EPOCH ENDS
EPOCH STARTS
TH0 ROB: 4 LSQ: 0 IQ: 0 IPC: 0.0007
TH1 ROB: 104 LSQ: 88 IQ: 96, IPC: 1.4827
TH2 ROB: 4 LSQ: 3 IQ: 0, IPC: 0.0007
TH3 ROB: 4 LSQ: 2 IQ: 0, IPC: 0.7025
EPOCH ENDS
EPOCH STARTS
TH0 ROB: 4 LSQ: 0 IQ: 0 IPC: 0.0007
TH1 ROB: 104 LSQ: 88 IQ: 96, IPC: 1.4853
TH2 ROB: 4 LSQ: 3 IQ: 0, IPC: 0.0007
TH3 ROB: 4 LSQ: 2 IQ: 0, IPC: 0.6999
EPOCH ENDS
EPOCH STARTS
TH0 ROB: 4 LSQ: 0 IQ: 0 IPC: 0.0007
TH1 ROB: 106 LSQ: 87 IQ: 96, IPC: 1.4879
TH2 ROB: 4 LSQ: 3 IQ: 0, IPC: 0.0007
TH3 ROB: 4 LSQ: 2 IQ: 0, IPC: 0.6973
EPOCH ENDS
EPOCH STARTS
TH0 ROB: 4 LSQ: 0 IQ: 0 IPC: 0.0007
TH1 ROB: 104 LSQ: 85 IQ: 96, IPC: 1.4905
TH2 ROB: 4 LSQ: 3 IQ: 0, IPC: 0.0007
TH3 ROB: 4 LSQ: 2 IQ: 0, IPC: 0.6947
EPOCH ENDS
EPOCH STARTS
TH0 ROB: 4 LSQ: 0 IQ: 0 IPC: 0.0007
TH1 ROB: 104 LSQ: 88 IQ: 96, IPC: 1.4930
TH2 ROB: 4 LSQ: 3 IQ: 0, IPC: 0.0007
TH3 ROB: 4 LSQ: 2 IQ: 0, IPC: 0.6921
EPOCH ENDS
EPOCH STARTS
TH0 ROB: 4 LSQ: 0 IQ: 0 IPC: 0.0007
TH1 ROB: 104 LSQ: 88 IQ: 96, IPC: 1.4956
TH2 ROB: 4 LSQ: 3 IQ: 0, IPC: 0.0007
TH3 ROB: 4 LSQ: 2 IQ: 0, IPC: 0.6896
EPOCH ENDS
EPOCH STARTS
TH0 ROB: 4 LSQ: 0 IQ: 0 IPC: 0.0007
TH1 ROB: 105 LSQ: 85 IQ: 96, IPC: 1.4981
TH2 ROB: 4 LSQ: 3 IQ: 0, IPC: 0.0007
TH3 ROB: 4 LSQ: 2 IQ: 0, IPC: 0.6870
EPOCH ENDS
EPOCH STARTS
TH0 ROB: 4 LSQ: 0 IQ: 0 IPC: 0.0007
TH1 ROB: 104 LSQ: 87 IQ: 96, IPC: 1.5006
TH2 ROB: 4 LSQ: 3 IQ: 0, IPC: 0.0007
TH3 ROB: 4 LSQ: 2 IQ: 0, IPC: 0.6845
EPOCH ENDS
EPOCH STARTS
TH0 ROB: 4 LSQ: 0 IQ: 0 IPC: 0.0007
TH1 ROB: 104 LSQ: 88 IQ: 96, IPC: 1.5031
TH2 ROB: 4 LSQ: 3 IQ: 0, IPC: 0.0007
TH3 ROB: 4 LSQ: 2 IQ: 0, IPC: 0.6820
EPOCH ENDS
EPOCH STARTS
TH0 ROB: 4 LSQ: 0 IQ: 0 IPC: 0.0007
TH1 ROB: 105 LSQ: 88 IQ: 96, IPC: 1.5055
TH2 ROB: 4 LSQ: 3 IQ: 0, IPC: 0.0007
TH3 ROB: 4 LSQ: 2 IQ: 0, IPC: 0.6796
EPOCH ENDS
EPOCH STARTS
TH0 ROB: 4 LSQ: 0 IQ: 0 IPC: 0.0007
TH1 ROB: 104 LSQ: 84 IQ: 96, IPC: 1.5080
TH2 ROB: 4 LSQ: 3 IQ: 0, IPC: 0.0007
TH3 ROB: 4 LSQ: 2 IQ: 0, IPC: 0.6771
EPOCH ENDS
EPOCH STARTS
TH0 ROB: 4 LSQ: 0 IQ: 0 IPC: 0.0007
TH1 ROB: 104 LSQ: 88 IQ: 96, IPC: 1.5104
TH2 ROB: 4 LSQ: 3 IQ: 0, IPC: 0.0007
TH3 ROB: 4 LSQ: 2 IQ: 0, IPC: 0.6747
EPOCH ENDS
EPOCH STARTS
TH0 ROB: 4 LSQ: 0 IQ: 0 IPC: 0.0007
TH1 ROB: 104 LSQ: 88 IQ: 96, IPC: 1.5128
TH2 ROB: 4 LSQ: 3 IQ: 0, IPC: 0.0007
TH3 ROB: 4 LSQ: 2 IQ: 0, IPC: 0.6723
EPOCH ENDS
EPOCH STARTS
TH0 ROB: 4 LSQ: 0 IQ: 0 IPC: 0.0007
TH1 ROB: 106 LSQ: 87 IQ: 96, IPC: 1.5152
TH2 ROB: 4 LSQ: 3 IQ: 0, IPC: 0.0007
TH3 ROB: 4 LSQ: 2 IQ: 0, IPC: 0.6699
EPOCH ENDS
EPOCH STARTS
TH0 ROB: 4 LSQ: 0 IQ: 0 IPC: 0.0007
TH1 ROB: 104 LSQ: 85 IQ: 96, IPC: 1.5176
TH2 ROB: 4 LSQ: 3 IQ: 0, IPC: 0.0007
TH3 ROB: 4 LSQ: 2 IQ: 0, IPC: 0.6675
EPOCH ENDS
EPOCH STARTS
TH0 ROB: 4 LSQ: 0 IQ: 0 IPC: 0.0007
TH1 ROB: 104 LSQ: 88 IQ: 96, IPC: 1.5199
TH2 ROB: 4 LSQ: 3 IQ: 0, IPC: 0.0007
TH3 ROB: 4 LSQ: 2 IQ: 0, IPC: 0.6651
EPOCH ENDS
EPOCH STARTS
TH0 ROB: 4 LSQ: 0 IQ: 0 IPC: 0.0007
TH1 ROB: 104 LSQ: 88 IQ: 96, IPC: 1.5223
TH2 ROB: 4 LSQ: 3 IQ: 0, IPC: 0.0007
TH3 ROB: 4 LSQ: 2 IQ: 0, IPC: 0.6628
EPOCH ENDS
EPOCH STARTS
TH0 ROB: 4 LSQ: 0 IQ: 0 IPC: 0.0007
TH1 ROB: 105 LSQ: 85 IQ: 96, IPC: 1.5246
TH2 ROB: 4 LSQ: 3 IQ: 0, IPC: 0.0007
TH3 ROB: 4 LSQ: 2 IQ: 0, IPC: 0.6604
EPOCH ENDS
EPOCH STARTS
TH0 ROB: 4 LSQ: 0 IQ: 0 IPC: 0.0007
TH1 ROB: 104 LSQ: 87 IQ: 96, IPC: 1.5269
TH2 ROB: 4 LSQ: 3 IQ: 0, IPC: 0.0007
TH3 ROB: 4 LSQ: 2 IQ: 0, IPC: 0.6581
EPOCH ENDS
EPOCH STARTS
TH0 ROB: 4 LSQ: 0 IQ: 0 IPC: 0.0007
TH1 ROB: 104 LSQ: 88 IQ: 96, IPC: 1.5292
TH2 ROB: 4 LSQ: 3 IQ: 0, IPC: 0.0007
TH3 ROB: 4 LSQ: 2 IQ: 0, IPC: 0.6558
EPOCH ENDS
EPOCH STARTS
TH0 ROB: 4 LSQ: 0 IQ: 0 IPC: 0.0007
TH1 ROB: 105 LSQ: 88 IQ: 96, IPC: 1.5314
TH2 ROB: 4 LSQ: 3 IQ: 0, IPC: 0.0007
TH3 ROB: 4 LSQ: 2 IQ: 0, IPC: 0.6535
EPOCH ENDS
EPOCH STARTS
TH0 ROB: 4 LSQ: 0 IQ: 0 IPC: 0.0007
TH1 ROB: 104 LSQ: 84 IQ: 96, IPC: 1.5337
TH2 ROB: 4 LSQ: 3 IQ: 0, IPC: 0.0007
TH3 ROB: 4 LSQ: 2 IQ: 0, IPC: 0.6513
EPOCH ENDS
EPOCH STARTS
TH0 ROB: 4 LSQ: 0 IQ: 0 IPC: 0.0007
TH1 ROB: 104 LSQ: 88 IQ: 96, IPC: 1.5359
TH2 ROB: 4 LSQ: 3 IQ: 0, IPC: 0.0007
TH3 ROB: 4 LSQ: 2 IQ: 0, IPC: 0.6490
EPOCH ENDS
EPOCH STARTS
TH0 ROB: 4 LSQ: 0 IQ: 0 IPC: 0.0007
TH1 ROB: 104 LSQ: 88 IQ: 96, IPC: 1.5382
TH2 ROB: 4 LSQ: 3 IQ: 0, IPC: 0.0007
TH3 ROB: 4 LSQ: 2 IQ: 0, IPC: 0.6468
EPOCH ENDS
EPOCH STARTS
TH0 ROB: 4 LSQ: 0 IQ: 0 IPC: 0.0007
TH1 ROB: 106 LSQ: 87 IQ: 96, IPC: 1.5404
TH2 ROB: 4 LSQ: 3 IQ: 0, IPC: 0.0007
TH3 ROB: 4 LSQ: 2 IQ: 0, IPC: 0.6445
EPOCH ENDS
EPOCH STARTS
TH0 ROB: 4 LSQ: 0 IQ: 0 IPC: 0.0007
TH1 ROB: 104 LSQ: 85 IQ: 96, IPC: 1.5426
TH2 ROB: 4 LSQ: 3 IQ: 0, IPC: 0.0007
TH3 ROB: 4 LSQ: 2 IQ: 0, IPC: 0.6423
EPOCH ENDS
EPOCH STARTS
TH0 ROB: 4 LSQ: 0 IQ: 0 IPC: 0.0007
TH1 ROB: 104 LSQ: 88 IQ: 96, IPC: 1.5448
TH2 ROB: 4 LSQ: 3 IQ: 0, IPC: 0.0007
TH3 ROB: 4 LSQ: 2 IQ: 0, IPC: 0.6401
EPOCH ENDS
EPOCH STARTS
TH0 ROB: 4 LSQ: 0 IQ: 0 IPC: 0.0007
TH1 ROB: 104 LSQ: 88 IQ: 96, IPC: 1.5469
TH2 ROB: 4 LSQ: 3 IQ: 0, IPC: 0.0007
TH3 ROB: 4 LSQ: 2 IQ: 0, IPC: 0.6380
EPOCH ENDS
EPOCH STARTS
TH0 ROB: 4 LSQ: 0 IQ: 0 IPC: 0.0007
TH1 ROB: 105 LSQ: 85 IQ: 96, IPC: 1.5491
TH2 ROB: 4 LSQ: 3 IQ: 0, IPC: 0.0007
TH3 ROB: 4 LSQ: 2 IQ: 0, IPC: 0.6358
EPOCH ENDS
EPOCH STARTS
TH0 ROB: 4 LSQ: 0 IQ: 0 IPC: 0.0007
TH1 ROB: 104 LSQ: 87 IQ: 96, IPC: 1.5512
TH2 ROB: 4 LSQ: 3 IQ: 0, IPC: 0.0007
TH3 ROB: 4 LSQ: 2 IQ: 0, IPC: 0.6337
EPOCH ENDS
EPOCH STARTS
TH0 ROB: 4 LSQ: 0 IQ: 0 IPC: 0.0007
TH1 ROB: 104 LSQ: 88 IQ: 96, IPC: 1.5533
TH2 ROB: 4 LSQ: 3 IQ: 0, IPC: 0.0007
TH3 ROB: 4 LSQ: 2 IQ: 0, IPC: 0.6315
EPOCH ENDS
EPOCH STARTS
TH0 ROB: 4 LSQ: 0 IQ: 0 IPC: 0.0007
TH1 ROB: 105 LSQ: 88 IQ: 96, IPC: 1.5555
TH2 ROB: 4 LSQ: 3 IQ: 0, IPC: 0.0007
TH3 ROB: 4 LSQ: 2 IQ: 0, IPC: 0.6294
EPOCH ENDS
EPOCH STARTS
TH0 ROB: 4 LSQ: 0 IQ: 0 IPC: 0.0007
TH1 ROB: 104 LSQ: 84 IQ: 96, IPC: 1.5575
TH2 ROB: 4 LSQ: 3 IQ: 0, IPC: 0.0007
TH3 ROB: 4 LSQ: 2 IQ: 0, IPC: 0.6273
EPOCH ENDS
EPOCH STARTS
TH0 ROB: 4 LSQ: 0 IQ: 0 IPC: 0.0007
TH1 ROB: 104 LSQ: 88 IQ: 96, IPC: 1.5596
TH2 ROB: 4 LSQ: 3 IQ: 0, IPC: 0.0007
TH3 ROB: 4 LSQ: 2 IQ: 0, IPC: 0.6252
EPOCH ENDS
EPOCH STARTS
TH0 ROB: 4 LSQ: 0 IQ: 0 IPC: 0.0006
TH1 ROB: 104 LSQ: 88 IQ: 96, IPC: 1.5617
TH2 ROB: 4 LSQ: 3 IQ: 0, IPC: 0.0006
TH3 ROB: 4 LSQ: 2 IQ: 0, IPC: 0.6231
EPOCH ENDS
EPOCH STARTS
TH0 ROB: 4 LSQ: 0 IQ: 0 IPC: 0.0006
TH1 ROB: 106 LSQ: 87 IQ: 96, IPC: 1.5637
TH2 ROB: 4 LSQ: 3 IQ: 0, IPC: 0.0006
TH3 ROB: 4 LSQ: 2 IQ: 0, IPC: 0.6211
EPOCH ENDS
EPOCH STARTS
TH0 ROB: 4 LSQ: 0 IQ: 0 IPC: 0.0006
TH1 ROB: 104 LSQ: 85 IQ: 96, IPC: 1.5658
TH2 ROB: 4 LSQ: 3 IQ: 0, IPC: 0.0006
TH3 ROB: 4 LSQ: 2 IQ: 0, IPC: 0.6190
EPOCH ENDS
EPOCH STARTS
TH0 ROB: 4 LSQ: 0 IQ: 0 IPC: 0.0006
TH1 ROB: 104 LSQ: 88 IQ: 96, IPC: 1.5678
TH2 ROB: 4 LSQ: 3 IQ: 0, IPC: 0.0006
TH3 ROB: 4 LSQ: 2 IQ: 0, IPC: 0.6170
EPOCH ENDS
EPOCH STARTS
TH0 ROB: 4 LSQ: 0 IQ: 0 IPC: 0.0006
TH1 ROB: 104 LSQ: 88 IQ: 96, IPC: 1.5698
TH2 ROB: 4 LSQ: 3 IQ: 0, IPC: 0.0006
TH3 ROB: 4 LSQ: 2 IQ: 0, IPC: 0.6150
EPOCH ENDS
EPOCH STARTS
TH0 ROB: 4 LSQ: 0 IQ: 0 IPC: 0.0006
TH1 ROB: 105 LSQ: 85 IQ: 96, IPC: 1.5718
TH2 ROB: 4 LSQ: 3 IQ: 0, IPC: 0.0006
TH3 ROB: 4 LSQ: 2 IQ: 0, IPC: 0.6129
EPOCH ENDS
EPOCH STARTS
TH0 ROB: 4 LSQ: 0 IQ: 0 IPC: 0.0006
TH1 ROB: 104 LSQ: 87 IQ: 96, IPC: 1.5738
TH2 ROB: 4 LSQ: 3 IQ: 0, IPC: 0.0006
TH3 ROB: 4 LSQ: 2 IQ: 0, IPC: 0.6110
EPOCH ENDS
EPOCH STARTS
TH0 ROB: 4 LSQ: 0 IQ: 0 IPC: 0.0006
TH1 ROB: 104 LSQ: 88 IQ: 96, IPC: 1.5758
TH2 ROB: 4 LSQ: 3 IQ: 0, IPC: 0.0006
TH3 ROB: 4 LSQ: 2 IQ: 0, IPC: 0.6090
EPOCH ENDS
EPOCH STARTS
TH0 ROB: 4 LSQ: 0 IQ: 0 IPC: 0.0006
TH1 ROB: 105 LSQ: 88 IQ: 96, IPC: 1.5777
TH2 ROB: 4 LSQ: 3 IQ: 0, IPC: 0.0006
TH3 ROB: 4 LSQ: 2 IQ: 0, IPC: 0.6070
EPOCH ENDS
EPOCH STARTS
TH0 ROB: 4 LSQ: 0 IQ: 0 IPC: 0.0006
TH1 ROB: 104 LSQ: 84 IQ: 96, IPC: 1.5797
TH2 ROB: 4 LSQ: 3 IQ: 0, IPC: 0.0006
TH3 ROB: 4 LSQ: 2 IQ: 0, IPC: 0.6050
EPOCH ENDS
EPOCH STARTS
TH0 ROB: 4 LSQ: 0 IQ: 0 IPC: 0.0006
TH1 ROB: 104 LSQ: 88 IQ: 96, IPC: 1.5816
TH2 ROB: 4 LSQ: 3 IQ: 0, IPC: 0.0006
TH3 ROB: 4 LSQ: 2 IQ: 0, IPC: 0.6031
EPOCH ENDS
EPOCH STARTS
TH0 ROB: 4 LSQ: 0 IQ: 0 IPC: 0.0006
TH1 ROB: 104 LSQ: 88 IQ: 96, IPC: 1.5836
TH2 ROB: 4 LSQ: 3 IQ: 0, IPC: 0.0006
TH3 ROB: 4 LSQ: 2 IQ: 0, IPC: 0.6012
EPOCH ENDS
EPOCH STARTS
TH0 ROB: 4 LSQ: 0 IQ: 0 IPC: 0.0006
TH1 ROB: 106 LSQ: 87 IQ: 96, IPC: 1.5855
TH2 ROB: 4 LSQ: 3 IQ: 0, IPC: 0.0006
TH3 ROB: 4 LSQ: 2 IQ: 0, IPC: 0.5992
EPOCH ENDS
EPOCH STARTS
TH0 ROB: 4 LSQ: 0 IQ: 0 IPC: 0.0006
TH1 ROB: 104 LSQ: 85 IQ: 96, IPC: 1.5874
TH2 ROB: 4 LSQ: 3 IQ: 0, IPC: 0.0006
TH3 ROB: 4 LSQ: 2 IQ: 0, IPC: 0.5973
EPOCH ENDS
EPOCH STARTS
TH0 ROB: 4 LSQ: 0 IQ: 0 IPC: 0.0006
TH1 ROB: 104 LSQ: 88 IQ: 96, IPC: 1.5893
TH2 ROB: 4 LSQ: 3 IQ: 0, IPC: 0.0006
TH3 ROB: 4 LSQ: 2 IQ: 0, IPC: 0.5954
EPOCH ENDS
EPOCH STARTS
TH0 ROB: 4 LSQ: 0 IQ: 0 IPC: 0.0006
TH1 ROB: 104 LSQ: 88 IQ: 96, IPC: 1.5911
TH2 ROB: 4 LSQ: 3 IQ: 0, IPC: 0.0006
TH3 ROB: 4 LSQ: 2 IQ: 0, IPC: 0.5936
EPOCH ENDS
EPOCH STARTS
TH0 ROB: 4 LSQ: 0 IQ: 0 IPC: 0.0006
TH1 ROB: 105 LSQ: 85 IQ: 96, IPC: 1.5930
TH2 ROB: 4 LSQ: 3 IQ: 0, IPC: 0.0006
TH3 ROB: 4 LSQ: 2 IQ: 0, IPC: 0.5917
EPOCH ENDS
EPOCH STARTS
TH0 ROB: 4 LSQ: 0 IQ: 0 IPC: 0.0006
TH1 ROB: 104 LSQ: 87 IQ: 96, IPC: 1.5948
TH2 ROB: 4 LSQ: 3 IQ: 0, IPC: 0.0006
TH3 ROB: 4 LSQ: 2 IQ: 0, IPC: 0.5898
EPOCH ENDS
EPOCH STARTS
TH0 ROB: 4 LSQ: 0 IQ: 0 IPC: 0.0006
TH1 ROB: 104 LSQ: 88 IQ: 96, IPC: 1.5967
TH2 ROB: 4 LSQ: 3 IQ: 0, IPC: 0.0006
TH3 ROB: 4 LSQ: 2 IQ: 0, IPC: 0.5880
EPOCH ENDS
EPOCH STARTS
TH0 ROB: 4 LSQ: 0 IQ: 0 IPC: 0.0006
TH1 ROB: 105 LSQ: 88 IQ: 96, IPC: 1.5985
TH2 ROB: 4 LSQ: 3 IQ: 0, IPC: 0.0006
TH3 ROB: 4 LSQ: 2 IQ: 0, IPC: 0.5861
EPOCH ENDS
EPOCH STARTS
TH0 ROB: 4 LSQ: 0 IQ: 0 IPC: 0.0006
TH1 ROB: 104 LSQ: 84 IQ: 96, IPC: 1.6003
TH2 ROB: 4 LSQ: 3 IQ: 0, IPC: 0.0006
TH3 ROB: 4 LSQ: 2 IQ: 0, IPC: 0.5843
EPOCH ENDS
EPOCH STARTS
TH0 ROB: 4 LSQ: 0 IQ: 0 IPC: 0.0006
TH1 ROB: 104 LSQ: 88 IQ: 96, IPC: 1.6021
TH2 ROB: 4 LSQ: 3 IQ: 0, IPC: 0.0006
TH3 ROB: 4 LSQ: 2 IQ: 0, IPC: 0.5825
EPOCH ENDS
EPOCH STARTS
TH0 ROB: 4 LSQ: 0 IQ: 0 IPC: 0.0006
TH1 ROB: 104 LSQ: 88 IQ: 96, IPC: 1.6039
TH2 ROB: 4 LSQ: 3 IQ: 0, IPC: 0.0006
TH3 ROB: 4 LSQ: 2 IQ: 0, IPC: 0.5807
EPOCH ENDS
EPOCH STARTS
TH0 ROB: 4 LSQ: 0 IQ: 0 IPC: 0.0006
TH1 ROB: 106 LSQ: 87 IQ: 96, IPC: 1.6057
TH2 ROB: 4 LSQ: 3 IQ: 0, IPC: 0.0006
TH3 ROB: 4 LSQ: 2 IQ: 0, IPC: 0.5789
EPOCH ENDS
EPOCH STARTS
TH0 ROB: 4 LSQ: 0 IQ: 0 IPC: 0.0006
TH1 ROB: 104 LSQ: 85 IQ: 96, IPC: 1.6075
TH2 ROB: 4 LSQ: 3 IQ: 0, IPC: 0.0006
TH3 ROB: 4 LSQ: 2 IQ: 0, IPC: 0.5771
EPOCH ENDS
EPOCH STARTS
TH0 ROB: 4 LSQ: 0 IQ: 0 IPC: 0.0006
TH1 ROB: 104 LSQ: 88 IQ: 96, IPC: 1.6092
TH2 ROB: 4 LSQ: 3 IQ: 0, IPC: 0.0006
TH3 ROB: 4 LSQ: 2 IQ: 0, IPC: 0.5753
EPOCH ENDS
EPOCH STARTS
TH0 ROB: 4 LSQ: 0 IQ: 0 IPC: 0.0006
TH1 ROB: 104 LSQ: 88 IQ: 96, IPC: 1.6110
TH2 ROB: 4 LSQ: 3 IQ: 0, IPC: 0.0006
TH3 ROB: 4 LSQ: 2 IQ: 0, IPC: 0.5736
EPOCH ENDS
EPOCH STARTS
TH0 ROB: 4 LSQ: 0 IQ: 0 IPC: 0.0006
TH1 ROB: 105 LSQ: 85 IQ: 96, IPC: 1.6127
TH2 ROB: 4 LSQ: 3 IQ: 0, IPC: 0.0006
TH3 ROB: 4 LSQ: 2 IQ: 0, IPC: 0.5718
EPOCH ENDS
EPOCH STARTS
TH0 ROB: 4 LSQ: 0 IQ: 0 IPC: 0.0006
TH1 ROB: 104 LSQ: 87 IQ: 96, IPC: 1.6145
TH2 ROB: 4 LSQ: 3 IQ: 0, IPC: 0.0006
TH3 ROB: 4 LSQ: 2 IQ: 0, IPC: 0.5701
EPOCH ENDS
EPOCH STARTS
TH0 ROB: 4 LSQ: 0 IQ: 0 IPC: 0.0006
TH1 ROB: 104 LSQ: 88 IQ: 96, IPC: 1.6162
TH2 ROB: 4 LSQ: 3 IQ: 0, IPC: 0.0006
TH3 ROB: 4 LSQ: 2 IQ: 0, IPC: 0.5684
EPOCH ENDS
EPOCH STARTS
TH0 ROB: 4 LSQ: 0 IQ: 0 IPC: 0.0006
TH1 ROB: 105 LSQ: 88 IQ: 96, IPC: 1.6179
TH2 ROB: 4 LSQ: 3 IQ: 0, IPC: 0.0006
TH3 ROB: 4 LSQ: 2 IQ: 0, IPC: 0.5667
EPOCH ENDS
EPOCH STARTS
TH0 ROB: 4 LSQ: 0 IQ: 0 IPC: 0.0006
TH1 ROB: 104 LSQ: 84 IQ: 96, IPC: 1.6196
TH2 ROB: 4 LSQ: 3 IQ: 0, IPC: 0.0006
TH3 ROB: 4 LSQ: 2 IQ: 0, IPC: 0.5649
EPOCH ENDS
EPOCH STARTS
TH0 ROB: 4 LSQ: 0 IQ: 0 IPC: 0.0006
TH1 ROB: 104 LSQ: 88 IQ: 96, IPC: 1.6213
TH2 ROB: 4 LSQ: 3 IQ: 0, IPC: 0.0006
TH3 ROB: 4 LSQ: 2 IQ: 0, IPC: 0.5633
EPOCH ENDS
EPOCH STARTS
TH0 ROB: 4 LSQ: 0 IQ: 0 IPC: 0.0006
TH1 ROB: 104 LSQ: 88 IQ: 96, IPC: 1.6230
TH2 ROB: 4 LSQ: 3 IQ: 0, IPC: 0.0006
TH3 ROB: 4 LSQ: 2 IQ: 0, IPC: 0.5616
EPOCH ENDS
EPOCH STARTS
TH0 ROB: 4 LSQ: 0 IQ: 0 IPC: 0.0006
TH1 ROB: 106 LSQ: 87 IQ: 96, IPC: 1.6246
TH2 ROB: 4 LSQ: 3 IQ: 0, IPC: 0.0006
TH3 ROB: 4 LSQ: 2 IQ: 0, IPC: 0.5599
EPOCH ENDS
EPOCH STARTS
TH0 ROB: 4 LSQ: 0 IQ: 0 IPC: 0.0006
TH1 ROB: 104 LSQ: 85 IQ: 96, IPC: 1.6263
TH2 ROB: 4 LSQ: 3 IQ: 0, IPC: 0.0006
TH3 ROB: 4 LSQ: 2 IQ: 0, IPC: 0.5582
EPOCH ENDS
EPOCH STARTS
TH0 ROB: 4 LSQ: 0 IQ: 0 IPC: 0.0006
TH1 ROB: 104 LSQ: 88 IQ: 96, IPC: 1.6279
TH2 ROB: 4 LSQ: 3 IQ: 0, IPC: 0.0006
TH3 ROB: 4 LSQ: 2 IQ: 0, IPC: 0.5566
EPOCH ENDS
EPOCH STARTS
TH0 ROB: 4 LSQ: 0 IQ: 0 IPC: 0.0006
TH1 ROB: 104 LSQ: 88 IQ: 96, IPC: 1.6296
TH2 ROB: 4 LSQ: 3 IQ: 0, IPC: 0.0006
TH3 ROB: 4 LSQ: 2 IQ: 0, IPC: 0.5549
EPOCH ENDS
EPOCH STARTS
TH0 ROB: 4 LSQ: 0 IQ: 0 IPC: 0.0006
TH1 ROB: 105 LSQ: 85 IQ: 96, IPC: 1.6312
TH2 ROB: 4 LSQ: 3 IQ: 0, IPC: 0.0006
TH3 ROB: 4 LSQ: 2 IQ: 0, IPC: 0.5533
EPOCH ENDS
EPOCH STARTS
TH0 ROB: 4 LSQ: 0 IQ: 0 IPC: 0.0006
TH1 ROB: 104 LSQ: 87 IQ: 96, IPC: 1.6328
TH2 ROB: 4 LSQ: 3 IQ: 0, IPC: 0.0006
TH3 ROB: 4 LSQ: 2 IQ: 0, IPC: 0.5517
EPOCH ENDS
EPOCH STARTS
TH0 ROB: 4 LSQ: 0 IQ: 0 IPC: 0.0006
TH1 ROB: 104 LSQ: 88 IQ: 96, IPC: 1.6344
TH2 ROB: 4 LSQ: 3 IQ: 0, IPC: 0.0006
TH3 ROB: 4 LSQ: 2 IQ: 0, IPC: 0.5500
EPOCH ENDS
EPOCH STARTS
TH0 ROB: 4 LSQ: 0 IQ: 0 IPC: 0.0006
TH1 ROB: 105 LSQ: 88 IQ: 96, IPC: 1.6360
TH2 ROB: 4 LSQ: 3 IQ: 0, IPC: 0.0006
TH3 ROB: 4 LSQ: 2 IQ: 0, IPC: 0.5484
EPOCH ENDS
EPOCH STARTS
TH0 ROB: 4 LSQ: 0 IQ: 0 IPC: 0.0006
TH1 ROB: 104 LSQ: 84 IQ: 96, IPC: 1.6376
TH2 ROB: 4 LSQ: 3 IQ: 0, IPC: 0.0006
TH3 ROB: 4 LSQ: 2 IQ: 0, IPC: 0.5468
EPOCH ENDS
EPOCH STARTS
TH0 ROB: 4 LSQ: 0 IQ: 0 IPC: 0.0006
TH1 ROB: 104 LSQ: 88 IQ: 96, IPC: 1.6392
TH2 ROB: 4 LSQ: 3 IQ: 0, IPC: 0.0006
TH3 ROB: 4 LSQ: 2 IQ: 0, IPC: 0.5452
EPOCH ENDS
EPOCH STARTS
TH0 ROB: 4 LSQ: 0 IQ: 0 IPC: 0.0006
TH1 ROB: 104 LSQ: 88 IQ: 96, IPC: 1.6408
TH2 ROB: 4 LSQ: 3 IQ: 0, IPC: 0.0006
TH3 ROB: 4 LSQ: 2 IQ: 0, IPC: 0.5437
EPOCH ENDS
EPOCH STARTS
TH0 ROB: 4 LSQ: 0 IQ: 0 IPC: 0.0006
TH1 ROB: 106 LSQ: 87 IQ: 96, IPC: 1.6423
TH2 ROB: 4 LSQ: 3 IQ: 0, IPC: 0.0006
TH3 ROB: 4 LSQ: 2 IQ: 0, IPC: 0.5421
EPOCH ENDS
EPOCH STARTS
TH0 ROB: 4 LSQ: 0 IQ: 0 IPC: 0.0006
TH1 ROB: 104 LSQ: 85 IQ: 96, IPC: 1.6439
TH2 ROB: 4 LSQ: 3 IQ: 0, IPC: 0.0006
TH3 ROB: 4 LSQ: 2 IQ: 0, IPC: 0.5405
EPOCH ENDS
EPOCH STARTS
TH0 ROB: 4 LSQ: 0 IQ: 0 IPC: 0.0006
TH1 ROB: 104 LSQ: 88 IQ: 96, IPC: 1.6454
TH2 ROB: 4 LSQ: 3 IQ: 0, IPC: 0.0006
TH3 ROB: 4 LSQ: 2 IQ: 0, IPC: 0.5390
EPOCH ENDS
EPOCH STARTS
TH0 ROB: 4 LSQ: 0 IQ: 0 IPC: 0.0006
TH1 ROB: 104 LSQ: 88 IQ: 96, IPC: 1.6470
TH2 ROB: 4 LSQ: 3 IQ: 0, IPC: 0.0006
TH3 ROB: 4 LSQ: 2 IQ: 0, IPC: 0.5374
EPOCH ENDS
EPOCH STARTS
TH0 ROB: 4 LSQ: 0 IQ: 0 IPC: 0.0006
TH1 ROB: 105 LSQ: 85 IQ: 96, IPC: 1.6485
TH2 ROB: 4 LSQ: 3 IQ: 0, IPC: 0.0006
TH3 ROB: 4 LSQ: 2 IQ: 0, IPC: 0.5359
EPOCH ENDS
EPOCH STARTS
TH0 ROB: 4 LSQ: 0 IQ: 0 IPC: 0.0006
TH1 ROB: 104 LSQ: 87 IQ: 96, IPC: 1.6500
TH2 ROB: 4 LSQ: 3 IQ: 0, IPC: 0.0006
TH3 ROB: 4 LSQ: 2 IQ: 0, IPC: 0.5344
EPOCH ENDS
EPOCH STARTS
TH0 ROB: 4 LSQ: 0 IQ: 0 IPC: 0.0006
TH1 ROB: 104 LSQ: 88 IQ: 96, IPC: 1.6515
TH2 ROB: 4 LSQ: 3 IQ: 0, IPC: 0.0006
TH3 ROB: 4 LSQ: 2 IQ: 0, IPC: 0.5328
EPOCH ENDS
EPOCH STARTS
TH0 ROB: 4 LSQ: 0 IQ: 0 IPC: 0.0006
TH1 ROB: 105 LSQ: 88 IQ: 96, IPC: 1.6530
TH2 ROB: 4 LSQ: 3 IQ: 0, IPC: 0.0006
TH3 ROB: 4 LSQ: 2 IQ: 0, IPC: 0.5313
EPOCH ENDS
EPOCH STARTS
TH0 ROB: 4 LSQ: 0 IQ: 0 IPC: 0.0006
TH1 ROB: 104 LSQ: 84 IQ: 96, IPC: 1.6545
TH2 ROB: 4 LSQ: 3 IQ: 0, IPC: 0.0006
TH3 ROB: 4 LSQ: 2 IQ: 0, IPC: 0.5298
EPOCH ENDS
EPOCH STARTS
TH0 ROB: 4 LSQ: 0 IQ: 0 IPC: 0.0006
TH1 ROB: 104 LSQ: 88 IQ: 96, IPC: 1.6560
TH2 ROB: 4 LSQ: 3 IQ: 0, IPC: 0.0005
TH3 ROB: 4 LSQ: 2 IQ: 0, IPC: 0.5283
EPOCH ENDS
EPOCH STARTS
TH0 ROB: 4 LSQ: 0 IQ: 0 IPC: 0.0005
TH1 ROB: 104 LSQ: 88 IQ: 96, IPC: 1.6575
TH2 ROB: 4 LSQ: 3 IQ: 0, IPC: 0.0005
TH3 ROB: 4 LSQ: 2 IQ: 0, IPC: 0.5269
EPOCH ENDS
EPOCH STARTS
TH0 ROB: 4 LSQ: 0 IQ: 0 IPC: 0.0005
TH1 ROB: 106 LSQ: 87 IQ: 96, IPC: 1.6590
TH2 ROB: 4 LSQ: 3 IQ: 0, IPC: 0.0005
TH3 ROB: 4 LSQ: 2 IQ: 0, IPC: 0.5254
EPOCH ENDS
EPOCH STARTS
TH0 ROB: 4 LSQ: 0 IQ: 0 IPC: 0.0005
TH1 ROB: 104 LSQ: 85 IQ: 96, IPC: 1.6604
TH2 ROB: 4 LSQ: 3 IQ: 0, IPC: 0.0005
TH3 ROB: 4 LSQ: 2 IQ: 0, IPC: 0.5239
EPOCH ENDS
EPOCH STARTS
TH0 ROB: 4 LSQ: 0 IQ: 0 IPC: 0.0005
TH1 ROB: 104 LSQ: 88 IQ: 96, IPC: 1.6619
TH2 ROB: 4 LSQ: 3 IQ: 0, IPC: 0.0005
TH3 ROB: 4 LSQ: 2 IQ: 0, IPC: 0.5225
EPOCH ENDS
EPOCH STARTS
TH0 ROB: 4 LSQ: 0 IQ: 0 IPC: 0.0005
TH1 ROB: 104 LSQ: 88 IQ: 96, IPC: 1.6633
TH2 ROB: 4 LSQ: 3 IQ: 0, IPC: 0.0005
TH3 ROB: 4 LSQ: 2 IQ: 0, IPC: 0.5210
EPOCH ENDS
EPOCH STARTS
TH0 ROB: 4 LSQ: 0 IQ: 0 IPC: 0.0005
TH1 ROB: 105 LSQ: 85 IQ: 96, IPC: 1.6648
TH2 ROB: 4 LSQ: 3 IQ: 0, IPC: 0.0005
TH3 ROB: 4 LSQ: 2 IQ: 0, IPC: 0.5196
EPOCH ENDS
EPOCH STARTS
TH0 ROB: 4 LSQ: 0 IQ: 0 IPC: 0.0005
TH1 ROB: 104 LSQ: 87 IQ: 96, IPC: 1.6662
TH2 ROB: 4 LSQ: 3 IQ: 0, IPC: 0.0005
TH3 ROB: 4 LSQ: 2 IQ: 0, IPC: 0.5181
EPOCH ENDS
EPOCH STARTS
TH0 ROB: 4 LSQ: 0 IQ: 0 IPC: 0.0005
TH1 ROB: 104 LSQ: 88 IQ: 96, IPC: 1.6676
TH2 ROB: 4 LSQ: 3 IQ: 0, IPC: 0.0005
TH3 ROB: 4 LSQ: 2 IQ: 0, IPC: 0.5167
EPOCH ENDS
EPOCH STARTS
TH0 ROB: 4 LSQ: 0 IQ: 0 IPC: 0.0005
TH1 ROB: 105 LSQ: 88 IQ: 96, IPC: 1.6690
TH2 ROB: 4 LSQ: 3 IQ: 0, IPC: 0.0005
TH3 ROB: 4 LSQ: 2 IQ: 0, IPC: 0.5153
EPOCH ENDS
EPOCH STARTS
TH0 ROB: 4 LSQ: 0 IQ: 0 IPC: 0.0005
TH1 ROB: 104 LSQ: 84 IQ: 96, IPC: 1.6704
TH2 ROB: 4 LSQ: 3 IQ: 0, IPC: 0.0005
TH3 ROB: 4 LSQ: 2 IQ: 0, IPC: 0.5139
EPOCH ENDS
EPOCH STARTS
TH0 ROB: 4 LSQ: 0 IQ: 0 IPC: 0.0005
TH1 ROB: 104 LSQ: 88 IQ: 96, IPC: 1.6718
TH2 ROB: 4 LSQ: 3 IQ: 0, IPC: 0.0005
TH3 ROB: 4 LSQ: 2 IQ: 0, IPC: 0.5125
EPOCH ENDS
EPOCH STARTS
TH0 ROB: 4 LSQ: 0 IQ: 0 IPC: 0.0005
TH1 ROB: 104 LSQ: 88 IQ: 96, IPC: 1.6732
TH2 ROB: 4 LSQ: 3 IQ: 0, IPC: 0.0005
TH3 ROB: 4 LSQ: 2 IQ: 0, IPC: 0.5111
EPOCH ENDS
EPOCH STARTS
TH0 ROB: 4 LSQ: 0 IQ: 0 IPC: 0.0005
TH1 ROB: 106 LSQ: 87 IQ: 96, IPC: 1.6746
TH2 ROB: 4 LSQ: 3 IQ: 0, IPC: 0.0005
TH3 ROB: 4 LSQ: 2 IQ: 0, IPC: 0.5097
EPOCH ENDS
EPOCH STARTS
TH0 ROB: 4 LSQ: 0 IQ: 0 IPC: 0.0005
TH1 ROB: 104 LSQ: 85 IQ: 96, IPC: 1.6760
TH2 ROB: 4 LSQ: 3 IQ: 0, IPC: 0.0005
TH3 ROB: 4 LSQ: 2 IQ: 0, IPC: 0.5083
EPOCH ENDS
EPOCH STARTS
TH0 ROB: 4 LSQ: 0 IQ: 0 IPC: 0.0005
TH1 ROB: 104 LSQ: 88 IQ: 96, IPC: 1.6773
TH2 ROB: 4 LSQ: 3 IQ: 0, IPC: 0.0005
TH3 ROB: 4 LSQ: 2 IQ: 0, IPC: 0.5069
EPOCH ENDS
EPOCH STARTS
TH0 ROB: 4 LSQ: 0 IQ: 0 IPC: 0.0005
TH1 ROB: 104 LSQ: 88 IQ: 96, IPC: 1.6787
TH2 ROB: 4 LSQ: 3 IQ: 0, IPC: 0.0005
TH3 ROB: 4 LSQ: 2 IQ: 0, IPC: 0.5056
EPOCH ENDS
EPOCH STARTS
TH0 ROB: 4 LSQ: 0 IQ: 0 IPC: 0.0005
TH1 ROB: 105 LSQ: 85 IQ: 96, IPC: 1.6801
TH2 ROB: 4 LSQ: 3 IQ: 0, IPC: 0.0005
TH3 ROB: 4 LSQ: 2 IQ: 0, IPC: 0.5042
EPOCH ENDS
EPOCH STARTS
TH0 ROB: 4 LSQ: 0 IQ: 0 IPC: 0.0005
TH1 ROB: 104 LSQ: 87 IQ: 96, IPC: 1.6814
TH2 ROB: 4 LSQ: 3 IQ: 0, IPC: 0.0005
TH3 ROB: 4 LSQ: 2 IQ: 0, IPC: 0.5028
EPOCH ENDS
EPOCH STARTS
TH0 ROB: 4 LSQ: 0 IQ: 0 IPC: 0.0005
TH1 ROB: 104 LSQ: 88 IQ: 96, IPC: 1.6827
TH2 ROB: 4 LSQ: 3 IQ: 0, IPC: 0.0005
TH3 ROB: 4 LSQ: 2 IQ: 0, IPC: 0.5015
EPOCH ENDS
EPOCH STARTS
TH0 ROB: 4 LSQ: 0 IQ: 0 IPC: 0.0005
TH1 ROB: 105 LSQ: 88 IQ: 96, IPC: 1.6841
TH2 ROB: 4 LSQ: 3 IQ: 0, IPC: 0.0005
TH3 ROB: 4 LSQ: 2 IQ: 0, IPC: 0.5002
EPOCH ENDS
EPOCH STARTS
TH0 ROB: 4 LSQ: 0 IQ: 0 IPC: 0.0005
TH1 ROB: 104 LSQ: 84 IQ: 96, IPC: 1.6854
TH2 ROB: 4 LSQ: 3 IQ: 0, IPC: 0.0005
TH3 ROB: 4 LSQ: 2 IQ: 0, IPC: 0.4988
EPOCH ENDS
EPOCH STARTS
TH0 ROB: 4 LSQ: 0 IQ: 0 IPC: 0.0005
TH1 ROB: 104 LSQ: 88 IQ: 96, IPC: 1.6867
TH2 ROB: 4 LSQ: 3 IQ: 0, IPC: 0.0005
TH3 ROB: 4 LSQ: 2 IQ: 0, IPC: 0.4975
EPOCH ENDS
EPOCH STARTS
TH0 ROB: 4 LSQ: 0 IQ: 0 IPC: 0.0005
TH1 ROB: 104 LSQ: 88 IQ: 96, IPC: 1.6880
TH2 ROB: 4 LSQ: 3 IQ: 0, IPC: 0.0005
TH3 ROB: 4 LSQ: 2 IQ: 0, IPC: 0.4962
EPOCH ENDS
EPOCH STARTS
TH0 ROB: 4 LSQ: 0 IQ: 0 IPC: 0.0005
TH1 ROB: 106 LSQ: 87 IQ: 96, IPC: 1.6893
TH2 ROB: 4 LSQ: 3 IQ: 0, IPC: 0.0005
TH3 ROB: 4 LSQ: 2 IQ: 0, IPC: 0.4949
EPOCH ENDS
EPOCH STARTS
TH0 ROB: 4 LSQ: 0 IQ: 0 IPC: 0.0005
TH1 ROB: 104 LSQ: 85 IQ: 96, IPC: 1.6906
TH2 ROB: 4 LSQ: 3 IQ: 0, IPC: 0.0005
TH3 ROB: 4 LSQ: 2 IQ: 0, IPC: 0.4936
EPOCH ENDS
EPOCH STARTS
TH0 ROB: 4 LSQ: 0 IQ: 0 IPC: 0.0005
TH1 ROB: 104 LSQ: 88 IQ: 96, IPC: 1.6919
TH2 ROB: 4 LSQ: 3 IQ: 0, IPC: 0.0005
TH3 ROB: 4 LSQ: 2 IQ: 0, IPC: 0.4923
EPOCH ENDS
EPOCH STARTS
TH0 ROB: 4 LSQ: 0 IQ: 0 IPC: 0.0005
TH1 ROB: 104 LSQ: 88 IQ: 96, IPC: 1.6932
TH2 ROB: 4 LSQ: 3 IQ: 0, IPC: 0.0005
TH3 ROB: 4 LSQ: 2 IQ: 0, IPC: 0.4910
EPOCH ENDS
EPOCH STARTS
TH0 ROB: 4 LSQ: 0 IQ: 0 IPC: 0.0005
TH1 ROB: 105 LSQ: 85 IQ: 96, IPC: 1.6945
TH2 ROB: 4 LSQ: 3 IQ: 0, IPC: 0.0005
TH3 ROB: 4 LSQ: 2 IQ: 0, IPC: 0.4897
EPOCH ENDS
EPOCH STARTS
TH0 ROB: 4 LSQ: 0 IQ: 0 IPC: 0.0005
TH1 ROB: 104 LSQ: 87 IQ: 96, IPC: 1.6957
TH2 ROB: 4 LSQ: 3 IQ: 0, IPC: 0.0005
TH3 ROB: 4 LSQ: 2 IQ: 0, IPC: 0.4884
EPOCH ENDS
EPOCH STARTS
TH0 ROB: 4 LSQ: 0 IQ: 0 IPC: 0.0005
TH1 ROB: 104 LSQ: 88 IQ: 96, IPC: 1.6970
TH2 ROB: 4 LSQ: 3 IQ: 0, IPC: 0.0005
TH3 ROB: 4 LSQ: 2 IQ: 0, IPC: 0.4872
EPOCH ENDS
EPOCH STARTS
TH0 ROB: 4 LSQ: 0 IQ: 0 IPC: 0.0005
TH1 ROB: 105 LSQ: 88 IQ: 96, IPC: 1.6982
TH2 ROB: 4 LSQ: 3 IQ: 0, IPC: 0.0005
TH3 ROB: 4 LSQ: 2 IQ: 0, IPC: 0.4859
EPOCH ENDS
EPOCH STARTS
TH0 ROB: 4 LSQ: 0 IQ: 0 IPC: 0.0005
TH1 ROB: 104 LSQ: 84 IQ: 96, IPC: 1.6995
TH2 ROB: 4 LSQ: 3 IQ: 0, IPC: 0.0005
TH3 ROB: 4 LSQ: 2 IQ: 0, IPC: 0.4847
EPOCH ENDS
EPOCH STARTS
TH0 ROB: 4 LSQ: 0 IQ: 0 IPC: 0.0005
TH1 ROB: 104 LSQ: 88 IQ: 96, IPC: 1.7007
TH2 ROB: 4 LSQ: 3 IQ: 0, IPC: 0.0005
TH3 ROB: 4 LSQ: 2 IQ: 0, IPC: 0.4834
EPOCH ENDS
EPOCH STARTS
TH0 ROB: 4 LSQ: 0 IQ: 0 IPC: 0.0005
TH1 ROB: 104 LSQ: 88 IQ: 96, IPC: 1.7020
TH2 ROB: 4 LSQ: 3 IQ: 0, IPC: 0.0005
TH3 ROB: 4 LSQ: 2 IQ: 0, IPC: 0.4822
EPOCH ENDS
EPOCH STARTS
TH0 ROB: 4 LSQ: 0 IQ: 0 IPC: 0.0005
TH1 ROB: 106 LSQ: 87 IQ: 96, IPC: 1.7032
TH2 ROB: 4 LSQ: 3 IQ: 0, IPC: 0.0005
TH3 ROB: 4 LSQ: 2 IQ: 0, IPC: 0.4809
EPOCH ENDS
EPOCH STARTS
TH0 ROB: 4 LSQ: 0 IQ: 0 IPC: 0.0005
TH1 ROB: 104 LSQ: 85 IQ: 96, IPC: 1.7044
TH2 ROB: 4 LSQ: 3 IQ: 0, IPC: 0.0005
TH3 ROB: 4 LSQ: 2 IQ: 0, IPC: 0.4797
EPOCH ENDS
EPOCH STARTS
TH0 ROB: 4 LSQ: 0 IQ: 0 IPC: 0.0005
TH1 ROB: 104 LSQ: 88 IQ: 96, IPC: 1.7057
TH2 ROB: 4 LSQ: 3 IQ: 0, IPC: 0.0005
TH3 ROB: 4 LSQ: 2 IQ: 0, IPC: 0.4785
EPOCH ENDS
EPOCH STARTS
TH0 ROB: 4 LSQ: 0 IQ: 0 IPC: 0.0005
TH1 ROB: 104 LSQ: 88 IQ: 96, IPC: 1.7069
TH2 ROB: 4 LSQ: 3 IQ: 0, IPC: 0.0005
[...]
Thread_3_cpred_bimod.retstack_pops            0 # total number of address popped off of ret-addr stack
Thread_3_cpred_bimod.used_ras.PP            0 # total number of RAS predictions used
Thread_3_cpred_bimod.ras_hits.PP            0 # total number of RAS hits
Thread_3_cpred_bimod.ras_rate.PP <error: divide by zero> # RAS prediction rate (i.e., RAS hits/used RAS)
il1.accesses              402406334 # total number of accesses
il1.hits                  402399417 # total number of hits
il1.misses                     6917 # total number of misses
il1.replacements               6917 # total number of replacements
il1.writebacks                    0 # total number of writebacks
il1.invalidations                 0 # total number of invalidations
il1.miss_rate                0.0000 # miss rate (i.e., misses/ref)
il1.repl_rate                0.0000 # replacement rate (i.e., repls/ref)
il1.wb_rate                  0.0000 # writeback rate (i.e., wrbks/ref)
il1.inv_rate                 0.0000 # invalidation rate (i.e., invs/ref)
dl1.accesses              164484872 # total number of accesses
dl1.hits                  137501766 # total number of hits
dl1.misses                 26983106 # total number of misses
dl1.replacements           26983106 # total number of replacements
dl1.writebacks             26156014 # total number of writebacks
dl1.invalidations                 0 # total number of invalidations
dl1.miss_rate                0.1640 # miss rate (i.e., misses/ref)
dl1.repl_rate                0.1640 # replacement rate (i.e., repls/ref)
dl1.wb_rate                  0.1590 # writeback rate (i.e., wrbks/ref)
dl1.inv_rate                 0.0000 # invalidation rate (i.e., invs/ref)
ul2.accesses               53146037 # total number of accesses
ul2.hits                   31754026 # total number of hits
ul2.misses                 21392011 # total number of misses
ul2.replacements           21392011 # total number of replacements
ul2.writebacks             16827040 # total number of writebacks
ul2.invalidations                 0 # total number of invalidations
ul2.miss_rate                0.4025 # miss rate (i.e., misses/ref)
ul2.repl_rate                0.4025 # replacement rate (i.e., repls/ref)
ul2.wb_rate                  0.3166 # writeback rate (i.e., wrbks/ref)
ul2.inv_rate                 0.0000 # invalidation rate (i.e., invs/ref)
itlb.accesses             402406334 # total number of accesses
itlb.hits                 402406175 # total number of hits
itlb.misses                     159 # total number of misses
itlb.replacements               159 # total number of replacements
itlb.writebacks                   0 # total number of writebacks
itlb.invalidations                0 # total number of invalidations
itlb.miss_rate               0.0000 # miss rate (i.e., misses/ref)
itlb.repl_rate               0.0000 # replacement rate (i.e., repls/ref)
itlb.wb_rate                 0.0000 # writeback rate (i.e., wrbks/ref)
itlb.inv_rate                0.0000 # invalidation rate (i.e., invs/ref)
dtlb.accesses             173447029 # total number of accesses
dtlb.hits                 172284051 # total number of hits
dtlb.misses                 1162978 # total number of misses
dtlb.replacements           1162978 # total number of replacements
dtlb.writebacks                   0 # total number of writebacks
dtlb.invalidations                0 # total number of invalidations
dtlb.miss_rate               0.0067 # miss rate (i.e., misses/ref)
dtlb.repl_rate               0.0067 # replacement rate (i.e., repls/ref)
dtlb.wb_rate                 0.0000 # writeback rate (i.e., wrbks/ref)
dtlb.inv_rate                0.0000 # invalidation rate (i.e., invs/ref)
sim_invalid_addrs                 0 # total non-speculative bogus addresses seen (debug var)
ld_text_base           0x0120000000 # program text (code) segment base
mem->ld_text_size            294912 # program text (code) size in bytes
mem->ld_data_base      0x0140000000 # program initialized data segment base
mem->ld_data_size             93888 # program init'ed `.data' and uninit'ed `.bss' size in bytes
mem->ld_stack_base     0x011ff9b000 # program stack segment base (highest address in stack)
mem->ld_stack_size            16384 # program initial stack size
mem->ld_prog_entry     0x0120000300 # program entry point (initial PC)
mem->ld_environ_base   0x011ff97000 # program environment base address address
mem->ld_target_big_endian            0 # target executable endian-ness, non-zero if big endian
mem_0.page_count             108052 # total number of pages allocated
mem_0.page_mem              864416k # total size of memory pages allocated
mem_0.ptab_misses            129157 # total first level page table misses
mem_0.ptab_accesses       657491818 # total page table accesses
mem_0.ptab_miss_rate         0.0002 # first level page table miss rate
ld_text_base           0x0120000000 # program text (code) segment base
mem->ld_text_size            221184 # program text (code) size in bytes
mem->ld_data_base      0x0140000000 # program initialized data segment base
mem->ld_data_size             76528 # program init'ed `.data' and uninit'ed `.bss' size in bytes
mem->ld_stack_base     0x011ff9b000 # program stack segment base (highest address in stack)
mem->ld_stack_size            16384 # program initial stack size
mem->ld_prog_entry     0x0120000300 # program entry point (initial PC)
mem->ld_environ_base   0x011ff97000 # program environment base address address
mem->ld_target_big_endian            0 # target executable endian-ness, non-zero if big endian
mem_0.page_count              52383 # total number of pages allocated
mem_0.page_mem              864416k # total size of memory pages allocated
mem_0.ptab_misses          14352307 # total first level page table misses
mem_0.ptab_accesses      1565631890 # total page table accesses
mem_0.ptab_miss_rate         0.0002 # first level page table miss rate
ld_text_base           0x0120000000 # program text (code) segment base
mem->ld_text_size           1916928 # program text (code) size in bytes
mem->ld_data_base      0x0140000000 # program initialized data segment base
mem->ld_data_size            269552 # program init'ed `.data' and uninit'ed `.bss' size in bytes
mem->ld_stack_base     0x011ff9b000 # program stack segment base (highest address in stack)
mem->ld_stack_size            16384 # program initial stack size
mem->ld_prog_entry     0x01200295b0 # program entry point (initial PC)
mem->ld_environ_base   0x011ff97000 # program environment base address address
mem->ld_target_big_endian            0 # target executable endian-ness, non-zero if big endian
mem_0.page_count              15778 # total number of pages allocated
mem_0.page_mem              864416k # total size of memory pages allocated
mem_0.ptab_misses             22972 # total first level page table misses
mem_0.ptab_accesses       916453416 # total page table accesses
mem_0.ptab_miss_rate         0.0002 # first level page table miss rate
ld_text_base           0x0120000000 # program text (code) segment base
mem->ld_text_size            401408 # program text (code) size in bytes
mem->ld_data_base      0x0140000000 # program initialized data segment base
mem->ld_data_size             70816 # program init'ed `.data' and uninit'ed `.bss' size in bytes
mem->ld_stack_base     0x011ff9b000 # program stack segment base (highest address in stack)
mem->ld_stack_size            16384 # program initial stack size
mem->ld_prog_entry     0x012000ff40 # program entry point (initial PC)
mem->ld_environ_base   0x011ff97000 # program environment base address address
mem->ld_target_big_endian            0 # target executable endian-ness, non-zero if big endian
mem_0.page_count               4157 # total number of pages allocated
mem_0.page_mem              864416k # total size of memory pages allocated
mem_0.ptab_misses              6329 # total first level page table misses
mem_0.ptab_accesses       683938614 # total page table accesses
mem_0.ptab_miss_rate         0.0002 # first level page table miss rate
rename_power           94428084.4432 # total power usage of rename unit
bpred_power            625046585.7966 # total power usage of bpred unit
window_power           1972813240.4432 # total power usage of instruction window
lsq_power              1101602962.2525 # total power usage of load/store queue
regfile_power          493676561.1997 # total power usage of arch. regfile
icache_power           585065120.7601 # total power usage of icache
dcache_power           1277941388.6260 # total power usage of dcache
dcache2_power          718601893.6489 # total power usage of dcache2
alu_power              2617463230.5360 # total power usage of alu
falu_power             1973484178.7036 # total power usage of falu
resultbus_power        1245487799.1971 # total power usage of resultbus
clock_power            4212879978.2747 # total power usage of clock
avg_rename_power             0.6833 # avg power usage of rename unit
avg_bpred_power              4.5231 # avg power usage of bpred unit
avg_window_power            14.2762 # avg power usage of instruction window
avg_lsq_power                7.9717 # avg power usage of lsq
avg_regfile_power            3.5725 # avg power usage of arch. regfile
avg_icache_power             4.2338 # avg power usage of icache
avg_dcache_power             9.2478 # avg power usage of dcache
avg_dcache2_power            5.2001 # avg power usage of dcache2
avg_alu_power               18.9412 # avg power usage of alu
avg_falu_power              14.2810 # avg power usage of falu
avg_resultbus_power          9.0129 # avg power usage of resultbus
avg_clock_power             30.4863 # avg power usage of clock
fetch_stage_power      1210111706.5567 # total power usage of fetch stage
dispatch_stage_power   94428084.4432 # total power usage of dispatch stage
issue_stage_power      8933910514.7037 # total power usage of issue stage
avg_fetch_power              8.7569 # average power of fetch unit per cycle
avg_dispatch_power           0.6833 # average power of dispatch unit per cycle
avg_issue_power             64.6499 # average power of issue unit per cycle
total_power            14945006845.1780 # total power per cycle
avg_total_power_cycle      108.1490 # average total power per cycle
avg_total_power_cycle_nofp_nod2      88.6678 # average total power per cycle
avg_total_power_insn        37.9367 # average total power per insn
avg_total_power_insn_nofp_nod2      31.1031 # average total power per insn
rename_power_cc1       88774273.9746 # total power usage of rename unit_cc1
bpred_power_cc1        111494762.5739 # total power usage of bpred unit_cc1
window_power_cc1       1933980360.7965 # total power usage of instruction window_cc1
lsq_power_cc1          469907493.5399 # total power usage of lsq_cc1
regfile_power_cc1      377869740.1824 # total power usage of arch. regfile_cc1
icache_power_cc1       525348901.9779 # total power usage of icache_cc1
dcache_power_cc1       987202715.3368 # total power usage of dcache_cc1
dcache2_power_cc1      139906713.5307 # total power usage of dcache2_cc1
alu_power_cc1          854017709.7942 # total power usage of alu_cc1
resultbus_power_cc1    1085043384.2387 # total power usage of resultbus_cc1
clock_power_cc1        2659250580.9386 # total power usage of clock_cc1
avg_rename_power_cc1         0.6424 # avg power usage of rename unit_cc1
avg_bpred_power_cc1          0.8068 # avg power usage of bpred unit_cc1
avg_window_power_cc1        13.9952 # avg power usage of instruction window_cc1
avg_lsq_power_cc1            3.4005 # avg power usage of lsq_cc1
avg_regfile_power_cc1        2.7344 # avg power usage of arch. regfile_cc1
avg_icache_power_cc1         3.8017 # avg power usage of icache_cc1
avg_dcache_power_cc1         7.1439 # avg power usage of dcache_cc1
avg_dcache2_power_cc1        1.0124 # avg power usage of dcache2_cc1
avg_alu_power_cc1            6.1801 # avg power usage of alu_cc1
avg_resultbus_power_cc1       7.8519 # avg power usage of resultbus_cc1
avg_clock_power_cc1         19.2436 # avg power usage of clock_cc1
fetch_stage_power_cc1  636843664.5518 # total power usage of fetch stage_cc1
dispatch_stage_power_cc1 88774273.9746 # total power usage of dispatch stage_cc1
issue_stage_power_cc1  5470058377.2368 # total power usage of issue stage_cc1
avg_fetch_power_cc1          4.6085 # average power of fetch unit per cycle_cc1
avg_dispatch_power_cc1       0.6424 # average power of dispatch unit per cycle_cc1
avg_issue_power_cc1         39.5839 # average power of issue unit per cycle_cc1
total_power_cycle_cc1  9232796636.8842 # total power per cycle_cc1
avg_total_power_cycle_cc1      66.8128 # average total power per cycle_cc1
avg_total_power_insn_cc1      23.4367 # average total power per insn_cc1
rename_power_cc2       67298277.3324 # total power usage of rename unit_cc2
bpred_power_cc2        59304091.9738 # total power usage of bpred unit_cc2
window_power_cc2       1763875996.7557 # total power usage of instruction window_cc2
lsq_power_cc2          298808032.0975 # total power usage of lsq_cc2
regfile_power_cc2      90131153.4761 # total power usage of arch. regfile_cc2
icache_power_cc2       525348901.9779 # total power usage of icache_cc2
dcache_power_cc2       760559570.9694 # total power usage of dcache_cc2
dcache2_power_cc2      138183307.8830 # total power usage of dcache2_cc2
alu_power_cc2          477320760.3610 # total power usage of alu_cc2
resultbus_power_cc2    800296390.7922 # total power usage of resultbus_cc2
clock_power_cc2        1969251788.7376 # total power usage of clock_cc2
avg_rename_power_cc2         0.4870 # avg power usage of rename unit_cc2
avg_bpred_power_cc2          0.4292 # avg power usage of bpred unit_cc2
avg_window_power_cc2        12.7642 # avg power usage of instruction window_cc2
avg_lsq_power_cc2            2.1623 # avg power usage of instruction lsq_cc2
avg_regfile_power_cc2        0.6522 # avg power usage of arch. regfile_cc2
avg_icache_power_cc2         3.8017 # avg power usage of icache_cc2
avg_dcache_power_cc2         5.5038 # avg power usage of dcache_cc2
avg_dcache2_power_cc2        1.0000 # avg power usage of dcache2_cc2
avg_alu_power_cc2            3.4541 # avg power usage of alu_cc2
avg_resultbus_power_cc2       5.7913 # avg power usage of resultbus_cc2
avg_clock_power_cc2         14.2504 # avg power usage of clock_cc2
fetch_stage_power_cc2  584652993.9516 # total power usage of fetch stage_cc2
dispatch_stage_power_cc2 67298277.3324 # total power usage of dispatch stage_cc2
issue_stage_power_cc2  4239044058.8588 # total power usage of issue stage_cc2
avg_fetch_power_cc2          4.2308 # average power of fetch unit per cycle_cc2
avg_dispatch_power_cc2       0.4870 # average power of dispatch unit per cycle_cc2
avg_issue_power_cc2         30.6757 # average power of issue unit per cycle_cc2
total_power_cycle_cc2  6950378272.3565 # total power per cycle_cc2
avg_total_power_cycle_cc2      50.2962 # average total power per cycle_cc2
avg_total_power_insn_cc2      17.6430 # average total power per insn_cc2
rename_power_cc3       67863658.3725 # total power usage of rename unit_cc3
bpred_power_cc3        110668910.4886 # total power usage of bpred unit_cc3
window_power_cc3       1764155865.2911 # total power usage of instruction window_cc3
lsq_power_cc3          360679858.1307 # total power usage of lsq_cc3
regfile_power_cc3      96126274.9857 # total power usage of arch. regfile_cc3
icache_power_cc3       531320523.8399 # total power usage of icache_cc3
dcache_power_cc3       793119111.7175 # total power usage of dcache_cc3
dcache2_power_cc3      196543383.5238 # total power usage of dcache2_cc3
alu_power_cc3          653665313.8706 # total power usage of alu_cc3
resultbus_power_cc3    800826777.1464 # total power usage of resultbus_cc3
clock_power_cc3        2109404756.6061 # total power usage of clock_cc3
avg_rename_power_cc3         0.4911 # avg power usage of rename unit_cc3
avg_bpred_power_cc3          0.8009 # avg power usage of bpred unit_cc3
avg_window_power_cc3        12.7662 # avg power usage of instruction window_cc3
avg_lsq_power_cc3            2.6100 # avg power usage of instruction lsq_cc3
avg_regfile_power_cc3        0.6956 # avg power usage of arch. regfile_cc3
avg_icache_power_cc3         3.8449 # avg power usage of icache_cc3
avg_dcache_power_cc3         5.7394 # avg power usage of dcache_cc3
avg_dcache2_power_cc3        1.4223 # avg power usage of dcache2_cc3
avg_alu_power_cc3            4.7302 # avg power usage of alu_cc3
avg_resultbus_power_cc3       5.7952 # avg power usage of resultbus_cc3
avg_clock_power_cc3         15.2646 # avg power usage of clock_cc3
fetch_stage_power_cc3  641989434.3285 # total power usage of fetch stage_cc3
dispatch_stage_power_cc3 67863658.3725 # total power usage of dispatch stage_cc3
issue_stage_power_cc3  4568990309.6801 # total power usage of issue stage_cc3
avg_fetch_power_cc3          4.6457 # average power of fetch unit per cycle_cc3
avg_dispatch_power_cc3       0.4911 # average power of dispatch unit per cycle_cc3
avg_issue_power_cc3         33.0633 # average power of issue unit per cycle_cc3
total_power_cycle_cc3  7484374433.9729 # total power per cycle_cc3
avg_total_power_cycle_cc3      54.1604 # average total power per cycle_cc3
avg_total_power_insn_cc3      18.9985 # average total power per insn_cc3
total_rename_access       393945751 # total number accesses of rename unit
total_bpred_access         26222611 # total number accesses of bpred unit
total_window_access      1297180553 # total number accesses of instruction window
total_lsq_access          174118685 # total number accesses of load/store queue
total_regfile_access      346819559 # total number accesses of arch. regfile
total_icache_access       402431972 # total number accesses of icache
total_dcache_access       164484871 # total number accesses of dcache
total_dcache2_access       53146037 # total number accesses of dcache2
total_alu_access          375042613 # total number accesses of alu
total_resultbus_access    409139450 # total number accesses of resultbus
avg_rename_access            2.8508 # avg number accesses of rename unit
avg_bpred_access             0.1898 # avg number accesses of bpred unit
avg_window_access            9.3870 # avg number accesses of instruction window
avg_lsq_access               1.2600 # avg number accesses of lsq
avg_regfile_access           2.5097 # avg number accesses of arch. regfile
avg_icache_access            2.9122 # avg number accesses of icache
avg_dcache_access            1.1903 # avg number accesses of dcache
avg_dcache2_access           0.3846 # avg number accesses of dcache2
avg_alu_access               2.7140 # avg number accesses of alu
avg_resultbus_access         2.9607 # avg number accesses of resultbus
max_rename_access                 4 # max number accesses of rename unit
max_bpred_access                  5 # max number accesses of bpred unit
max_window_access                46 # max number accesses of instruction window
max_lsq_access                    4 # max number accesses of load/store queue
max_regfile_access               16 # max number accesses of arch. regfile
max_icache_access                 4 # max number accesses of icache
max_dcache_access                 4 # max number accesses of dcache
max_dcache2_access                8 # max number accesses of dcache2
max_alu_access                    4 # max number accesses of alu
max_resultbus_access             38 # max number accesses of resultbus
max_cycle_power_cc1        186.7288 # maximum cycle power usage of cc1
max_cycle_power_cc2        173.3570 # maximum cycle power usage of cc2
max_cycle_power_cc3        177.3220 # maximum cycle power usage of cc3


******* SMT STATS *******
THROUGHPUT IPC: 2.7153

TH0 IPC: 0.5311

TH1 IPC: 0.9756

TH2 IPC: 0.5699

TH3 IPC: 0.6387

