sim-outorder: SimpleScalar/Alpha Tool Set version 3.0 of August, 2003.
Copyright (c) 1994-2003 by Todd M. Austin, Ph.D. and SimpleScalar, LLC.
All Rights Reserved. This version of SimpleScalar is licensed for academic
non-commercial use.  No portion of this work may be used by any commercial
entity, or for any commercial purpose, without the prior written permission
of SimpleScalar, LLC (info@simplescalar.com).


Processor Parameters:
Issue Width: 4
Window Size: 224
Number of Virtual Registers: 32
Number of Physical Registers: 256
Datapath Width: 64
Total Power Consumption: 110.149
Branch Predictor Power Consumption: 4.52313  (4.18%)
 branch target buffer power (W): 4.16837
 local predict power (W): 0.0879711
 global predict power (W): 0.0996078
 chooser power (W): 0.0702439
 RAS power (W): 0.0969383
Rename Logic Power Consumption: 0.683325  (0.632%)
 Instruction Decode Power (W): 0.0159915
 RAT decode_power (W): 0.113514
 RAT wordline_power (W): 0.0493708
 RAT bitline_power (W): 0.493541
 DCL Comparators (W): 0.0109075
Instruction Window Power Consumption: 14.2762  (13.2%)
 tagdrive (W): 0.827064
 tagmatch (W): 0.360565
 Selection Logic (W): 0.0885831
 decode_power (W): 1.16922
 wordline_power (W): 0.0844643
 bitline_power (W): 11.7463
Load/Store Queue Power Consumption: 7.97171  (7.37%)
 tagdrive (W): 3.75392
 tagmatch (W): 1.61238
 decode_power (W): 0.181222
 wordline_power (W): 0.0150119
 bitline_power (W): 2.40917
Arch. Register File Power Consumption: 3.57247  (3.3%)
 decode_power (W): 0.113514
 wordline_power (W): 0.0844643
 bitline_power (W): 3.37449
Result Bus Power Consumption: 9.01293  (8.33%)
Total Clock Power: 30.4863  (28.2%)
Int ALU Power: 4.66013  (4.31%)
FP ALU Power: 14.281  (13.2%)
Instruction Cache Power Consumption: 3.97049  (3.67%)
 decode_power (W): 1.67268
 wordline_power (W): 0.028656
 bitline_power (W): 1.5122
 senseamp_power (W): 0.096
 tagarray_power (W): 0.660946
Itlb_power (W): 0.263317 (0.243%)
Data Cache Power Consumption: 8.34726  (7.72%)
 decode_power (W): 1.44978
 wordline_power (W): 0.196735
 bitline_power (W): 4.58765
 senseamp_power (W): 0.768
 tagarray_power (W): 1.34509
Dtlb_power (W): 0.900515 (0.833%)
Level 2 Cache Power Consumption: 5.20014 (4.81%)
 decode_power (W): 0.41817
 wordline_power (W): 0.0430878
 bitline_power (W): 3.0244
 senseamp_power (W): 0.192
 tagarray_power (W): 1.52247
sim-main: initalizing context 0:hmmerNS.1.arg
args: 0:./hmmer.base.alpha 1:./nph3.hmm 2:./swiss41 
sim: loading binary...
sim: loading ./hmmer.base.alpha
sim-main: initalizing context 1:namdNS.1.arg
args: 0:./namd.base.alpha 1:--input 2:./namd.input 3:--iterations 4:38 5:--output 6:./namd.out 
sim: loading binary...
sim: loading ./namd.base.alpha
warning: section `.comment' ignored...
sim-main: initalizing context 2:omnetppNS.1.arg
args: 0:./omnetpp.base.alpha 1:./omnetpp.ini 
sim: loading binary...
sim: loading ./omnetpp.base.alpha
warning: section `.comment' ignored...
sim-main: initalizing context 3:zeusmpNS.1.arg
args: 0:./zeusmp.base.alpha 
sim: loading binary...
sim: loading ./zeusmp.base.alpha
sim: command line: ../m-sim_v2.0/sim-outorder hmmerNS.1.arg namdNS.1.arg omnetppNS.1.arg zeusmpNS.1.arg 

sim: simulation started @ Thu Aug 11 01:10:29 2022, options follow:

sim-outorder: This simulator implements a very detailed out-of-order issue
superscalar processor with a two-level memory system and speculative
execution support.  This simulator is a performance simulator, tracking the
latency of all pipeline operations.

# -config                     # load configuration from a file
# -dumpconfig                 # dump configuration to a file
# -h                    false # print help message    
# -v                    false # verbose operation     
# -d                    false # enable debug message  
# -i                    false # start in Dlite debugger
-seed                       1 # random number generator seed (0 for timer seed)
# -q                    false # initialize and terminate immediately
# -redir:sim           <null> # redirect simulator output to file (non-interactive only)
# -redir:prog          <null> # redirect simulated program output to file
-nice                       0 # simulator scheduling priority
-max:inst           250000000 # maximum number of inst's to execute
-fastfwd             10000000 # number of insts skipped before timing starts
# -ptrace              <null> # generate pipetrace, i.e., <fname|stdout|stderr> <range>
-fetch:speed                1 # speed of front-end of machine relative to execution core
-bpred                  bimod # branch predictor type {nottaken|taken|perfect|bimod|2lev|comb}
-bpred:bimod     2048 # bimodal predictor config (<table size>)
-bpred:2lev      1 1024 8 0 # 2-level predictor config (<l1size> <l2size> <hist_size> <xor>)
-bpred:comb      1024 # combining predictor config (<meta_table_size>)
-bpred:ras                  8 # return address stack size (0 for no return stack)
-bpred:btb       512 4 # BTB config (<num_sets> <associativity>)
# -bpred:spec_update       <null> # speculative predictors update in {ID|WB} (default non-spec)
-cpred                  bimod # cache load-latency predictor type {nottaken|taken|perfect|bimod|2lev|comb}
-cpred:bimod     2048 # cache load-latency bimodal predictor config (<table size>)
-cpred:2lev      1 1024 8 0 # cache load-latency 2-level predictor config (<l1size> <l2size> <hist_size> <xor>)
-cpred:comb      1024 # cache load-latency combining predictor config (<meta_table_size>)
-cpred:ras                  0 # return address stack size (0 for no return stack)
-cpred:btb       512 4 # cache load-latency BTB config (<num_sets> <associativity>)
-decode:width               4 # instruction decode B/W (insts/cycle)
-issue:width                4 # instruction issue B/W (insts/cycle)
-issue:inorder          false # run pipeline with in-order issue
-issue:wrongpath         true # issue instructions down wrong execution paths
-commit:width               4 # instruction commit B/W (insts/cycle)
-rob:size                 224 # reorder buffer (ROB) size
-fetch:policy |icount|round_robin|       icount # fetch policy          
-recovery:model        squash # Alpha squash recovery or perfect predition: |squash|perfect|
-iq:size                   96 # issue queue (IQ) size 
-iq:issue_exec_delay            1 # minimum cycles between issue and execution
-fetch_rename_delay            4 # number of cycles between fetch and rename stages
-rename_dispatch_delay            1 # number cycles between rename and dispatch stages
-rf:size                  256 # register file (RF) size for each the INT and FP physical register file)
-lsq:size                 128 # load/store queue (LSQ) size
-cache:dl1       dl1:256:32:4:l # l1 data cache config, i.e., {<config>|none}
-cache:dl1lat               1 # l1 data cache hit latency (in cycles)
-cache:dl2       ul2:1024:64:8:l # l2 data cache config, i.e., {<config>|none}
-cache:dl2lat               6 # l2 data cache hit latency (in cycles)
-cache:il1       il1:512:32:2:l # l1 inst cache config, i.e., {<config>|dl1|dl2|none}
-cache:il1lat               1 # l1 instruction cache hit latency (in cycles)
-cache:il2                dl2 # l2 instruction cache config, i.e., {<config>|dl2|none}
-cache:il2lat               6 # l2 instruction cache hit latency (in cycles)
-cache:flush            false # flush caches on system calls
-cache:icompress        false # convert 64-bit inst addresses to 32-bit inst equivalents
-mem:lat         100 2 # memory access latency (<first_chunk> <inter_chunk>)
-mem:width                  8 # memory access bus width (in bytes)
-tlb:itlb        itlb:16:4096:4:l # instruction TLB config, i.e., {<config>|none}
-tlb:dtlb        dtlb:32:4096:4:l # data TLB config, i.e., {<config>|none}
-tlb:lat                   30 # inst/data TLB miss latency (in cycles)
-res:ialu                   4 # total number of integer ALU's available
-res:imult                  1 # total number of integer multiplier/dividers available
-res:memport                2 # total number of memory system ports available (to CPU)
-res:fpalu                  4 # total number of floating point ALU's available
-res:fpmult                 1 # total number of floating point multiplier/dividers available
# -pcstat              <null> # profile stat(s) against text addr's (mult uses ok)
-power:print_stats         true # print power statistics collected by wattch?

  Pipetrace range arguments are formatted as follows:

    {{@|#}<start>}:{{@|#|+}<end>}

  Both ends of the range are optional, if neither are specified, the entire
  execution is traced.  Ranges that start with a `@' designate an address
  range to be traced, those that start with an `#' designate a cycle count
  range.  All other range values represent an instruction count range.  The
  second argument, if specified with a `+', indicates a value relative
  to the first argument, e.g., 1000:+100 == 1000:1100.  Program symbols may
  be used in all contexts.

    Examples:   -ptrace FOO.trc #0:#1000
                -ptrace BAR.trc @2000:
                -ptrace BLAH.trc :1500
                -ptrace UXXE.trc :
                -ptrace FOOBAR.trc @main:+278

  Branch predictor configuration examples for 2-level predictor:
    Configurations:   N, M, W, X
      N   # entries in first level (# of shift register(s))
      W   width of shift register(s)
      M   # entries in 2nd level (# of counters, or other FSM)
      X   (yes-1/no-0) xor history and address for 2nd level index
    Sample predictors:
      GAg     : 1, W, 2^W, 0
      GAp     : 1, W, M (M > 2^W), 0
      PAg     : N, W, 2^W, 0
      PAp     : N, W, M (M == 2^(N+W)), 0
      gshare  : 1, W, 2^W, 1
  Predictor `comb' combines a bimodal and a 2-level predictor.

  The cache config parameter <config> has the following format:

    <name>:<nsets>:<bsize>:<assoc>:<repl>

    <name>   - name of the cache being defined
    <nsets>  - number of sets in the cache
    <bsize>  - block size of the cache
    <assoc>  - associativity of the cache
    <repl>   - block replacement strategy, 'l'-LRU, 'f'-FIFO, 'r'-random

    Examples:   -cache:dl1 dl1:4096:32:1:l
                -dtlb dtlb:128:4096:32:r

  Cache levels can be unified by pointing a level of the instruction cache
  hierarchy at the data cache hiearchy using the "dl1" and "dl2" cache
  configuration arguments.  Most sensible combinations are supported, e.g.,

    A unified l2 cache (il2 is pointed at dl2):
      -cache:il1 il1:128:64:1:l -cache:il2 dl2
      -cache:dl1 dl1:256:32:1:l -cache:dl2 ul2:1024:64:2:l

    Or, a fully unified cache hierarchy (il1 pointed at dl1):
      -cache:il1 dl1
      -cache:dl1 ul1:256:32:1:l -cache:dl2 ul2:1024:64:2:l



sim: ** fast forwarding insts **
warning: partially supported sigaction() call...
warning: invalid/unimplemented syscall 226, PC=0x1200b4a54, RA=0x120098314, winging it
warning: unsupported ioctl call: ioctl(536900702, ...)
sim: ** starting performance simulation **
EPOCH STARTS
TH0 ROB: 4 LSQ: 1 IQ: 0 IPC: 0.5280
TH1 ROB: 4 LSQ: 0 IQ: 0, IPC: 0.4762
TH2 ROB: 106 LSQ: 64 IQ: 96, IPC: 1.0094
TH3 ROB: 4 LSQ: 2 IQ: 0, IPC: 0.6091
EPOCH ENDS
EPOCH STARTS
TH0 ROB: 4 LSQ: 1 IQ: 0 IPC: 0.2640
TH1 ROB: 4 LSQ: 0 IQ: 0, IPC: 0.2381
TH2 ROB: 106 LSQ: 64 IQ: 96, IPC: 1.7547
TH3 ROB: 4 LSQ: 2 IQ: 0, IPC: 0.3046
EPOCH ENDS
EPOCH STARTS
TH0 ROB: 4 LSQ: 1 IQ: 0 IPC: 0.1760
TH1 ROB: 4 LSQ: 0 IQ: 0, IPC: 0.1587
TH2 ROB: 106 LSQ: 64 IQ: 96, IPC: 2.0031
TH3 ROB: 4 LSQ: 2 IQ: 0, IPC: 0.2030
EPOCH ENDS
EPOCH STARTS
TH0 ROB: 4 LSQ: 1 IQ: 0 IPC: 0.1320
TH1 ROB: 4 LSQ: 0 IQ: 0, IPC: 0.1191
TH2 ROB: 106 LSQ: 64 IQ: 96, IPC: 2.1274
TH3 ROB: 4 LSQ: 2 IQ: 0, IPC: 0.1523
EPOCH ENDS
EPOCH STARTS
TH0 ROB: 4 LSQ: 1 IQ: 0 IPC: 0.1056
TH1 ROB: 4 LSQ: 0 IQ: 0, IPC: 0.0952
TH2 ROB: 106 LSQ: 64 IQ: 96, IPC: 2.2019
TH3 ROB: 4 LSQ: 2 IQ: 0, IPC: 0.1218
EPOCH ENDS
EPOCH STARTS
TH0 ROB: 4 LSQ: 1 IQ: 0 IPC: 0.0880
TH1 ROB: 4 LSQ: 0 IQ: 0, IPC: 0.0794
TH2 ROB: 106 LSQ: 64 IQ: 96, IPC: 2.2516
TH3 ROB: 4 LSQ: 2 IQ: 0, IPC: 0.1015
EPOCH ENDS
EPOCH STARTS
TH0 ROB: 4 LSQ: 1 IQ: 0 IPC: 0.0754
TH1 ROB: 4 LSQ: 0 IQ: 0, IPC: 0.0680
TH2 ROB: 106 LSQ: 64 IQ: 96, IPC: 2.2871
TH3 ROB: 4 LSQ: 2 IQ: 0, IPC: 0.0870
EPOCH ENDS
EPOCH STARTS
TH0 ROB: 4 LSQ: 1 IQ: 0 IPC: 0.0660
TH1 ROB: 4 LSQ: 0 IQ: 0, IPC: 0.0595
TH2 ROB: 106 LSQ: 64 IQ: 96, IPC: 2.3137
TH3 ROB: 4 LSQ: 2 IQ: 0, IPC: 0.0761
EPOCH ENDS
EPOCH STARTS
TH0 ROB: 4 LSQ: 1 IQ: 0 IPC: 0.0587
TH1 ROB: 4 LSQ: 0 IQ: 0, IPC: 0.0529
TH2 ROB: 106 LSQ: 64 IQ: 96, IPC: 2.3344
TH3 ROB: 4 LSQ: 2 IQ: 0, IPC: 0.0677
EPOCH ENDS
EPOCH STARTS
TH0 ROB: 4 LSQ: 1 IQ: 0 IPC: 0.0528
TH1 ROB: 4 LSQ: 0 IQ: 0, IPC: 0.0476
TH2 ROB: 106 LSQ: 64 IQ: 96, IPC: 2.3509
TH3 ROB: 4 LSQ: 2 IQ: 0, IPC: 0.0609
EPOCH ENDS
EPOCH STARTS
TH0 ROB: 4 LSQ: 1 IQ: 0 IPC: 0.0480
TH1 ROB: 4 LSQ: 0 IQ: 0, IPC: 0.0433
TH2 ROB: 106 LSQ: 64 IQ: 96, IPC: 2.3645
TH3 ROB: 4 LSQ: 2 IQ: 0, IPC: 0.0554
EPOCH ENDS
EPOCH STARTS
TH0 ROB: 4 LSQ: 1 IQ: 0 IPC: 0.0440
TH1 ROB: 4 LSQ: 0 IQ: 0, IPC: 0.0397
TH2 ROB: 106 LSQ: 64 IQ: 96, IPC: 2.3758
TH3 ROB: 4 LSQ: 2 IQ: 0, IPC: 0.0508
EPOCH ENDS
EPOCH STARTS
TH0 ROB: 4 LSQ: 1 IQ: 0 IPC: 0.0406
TH1 ROB: 4 LSQ: 0 IQ: 0, IPC: 0.0366
TH2 ROB: 106 LSQ: 64 IQ: 96, IPC: 2.3853
TH3 ROB: 4 LSQ: 2 IQ: 0, IPC: 0.0469
EPOCH ENDS
EPOCH STARTS
TH0 ROB: 4 LSQ: 1 IQ: 0 IPC: 0.0377
TH1 ROB: 4 LSQ: 0 IQ: 0, IPC: 0.0340
TH2 ROB: 106 LSQ: 64 IQ: 96, IPC: 2.3935
TH3 ROB: 4 LSQ: 2 IQ: 0, IPC: 0.0435
EPOCH ENDS
EPOCH STARTS
TH0 ROB: 4 LSQ: 1 IQ: 0 IPC: 0.0352
TH1 ROB: 4 LSQ: 0 IQ: 0, IPC: 0.0317
TH2 ROB: 106 LSQ: 64 IQ: 96, IPC: 2.4006
TH3 ROB: 4 LSQ: 2 IQ: 0, IPC: 0.0406
EPOCH ENDS
EPOCH STARTS
TH0 ROB: 4 LSQ: 1 IQ: 0 IPC: 0.0330
TH1 ROB: 4 LSQ: 0 IQ: 0, IPC: 0.0298
TH2 ROB: 106 LSQ: 64 IQ: 96, IPC: 2.4068
TH3 ROB: 4 LSQ: 2 IQ: 0, IPC: 0.0381
EPOCH ENDS
EPOCH STARTS
TH0 ROB: 4 LSQ: 1 IQ: 0 IPC: 0.0311
TH1 ROB: 4 LSQ: 0 IQ: 0, IPC: 0.0280
TH2 ROB: 106 LSQ: 64 IQ: 96, IPC: 2.4123
TH3 ROB: 4 LSQ: 2 IQ: 0, IPC: 0.0358
EPOCH ENDS
EPOCH STARTS
TH0 ROB: 4 LSQ: 1 IQ: 0 IPC: 0.0293
TH1 ROB: 4 LSQ: 0 IQ: 0, IPC: 0.0265
TH2 ROB: 106 LSQ: 64 IQ: 96, IPC: 2.4172
TH3 ROB: 4 LSQ: 2 IQ: 0, IPC: 0.0338
EPOCH ENDS
EPOCH STARTS
TH0 ROB: 4 LSQ: 1 IQ: 0 IPC: 0.0278
TH1 ROB: 4 LSQ: 0 IQ: 0, IPC: 0.0251
TH2 ROB: 106 LSQ: 64 IQ: 96, IPC: 2.4215
TH3 ROB: 4 LSQ: 2 IQ: 0, IPC: 0.0321
EPOCH ENDS
EPOCH STARTS
TH0 ROB: 4 LSQ: 1 IQ: 0 IPC: 0.0264
TH1 ROB: 4 LSQ: 0 IQ: 0, IPC: 0.0238
TH2 ROB: 106 LSQ: 64 IQ: 96, IPC: 2.4255
TH3 ROB: 4 LSQ: 2 IQ: 0, IPC: 0.0305
EPOCH ENDS
EPOCH STARTS
TH0 ROB: 4 LSQ: 1 IQ: 0 IPC: 0.0251
TH1 ROB: 4 LSQ: 0 IQ: 0, IPC: 0.0227
TH2 ROB: 106 LSQ: 64 IQ: 96, IPC: 2.4290
TH3 ROB: 4 LSQ: 2 IQ: 0, IPC: 0.0290
EPOCH ENDS
EPOCH STARTS
TH0 ROB: 4 LSQ: 1 IQ: 0 IPC: 0.0240
TH1 ROB: 4 LSQ: 0 IQ: 0, IPC: 0.0216
TH2 ROB: 106 LSQ: 64 IQ: 96, IPC: 2.4322
TH3 ROB: 4 LSQ: 2 IQ: 0, IPC: 0.0277
EPOCH ENDS
EPOCH STARTS
TH0 ROB: 4 LSQ: 1 IQ: 0 IPC: 0.0230
TH1 ROB: 4 LSQ: 0 IQ: 0, IPC: 0.0207
TH2 ROB: 106 LSQ: 64 IQ: 96, IPC: 2.4352
TH3 ROB: 4 LSQ: 2 IQ: 0, IPC: 0.0265
EPOCH ENDS
EPOCH STARTS
TH0 ROB: 4 LSQ: 1 IQ: 0 IPC: 0.0220
TH1 ROB: 4 LSQ: 0 IQ: 0, IPC: 0.0198
TH2 ROB: 106 LSQ: 64 IQ: 96, IPC: 2.4379
TH3 ROB: 4 LSQ: 2 IQ: 0, IPC: 0.0254
EPOCH ENDS
EPOCH STARTS
TH0 ROB: 4 LSQ: 1 IQ: 0 IPC: 0.0211
TH1 ROB: 4 LSQ: 0 IQ: 0, IPC: 0.0190
TH2 ROB: 106 LSQ: 64 IQ: 96, IPC: 2.4404
TH3 ROB: 4 LSQ: 2 IQ: 0, IPC: 0.0244
EPOCH ENDS
EPOCH STARTS
TH0 ROB: 4 LSQ: 1 IQ: 0 IPC: 0.0203
TH1 ROB: 4 LSQ: 0 IQ: 0, IPC: 0.0183
TH2 ROB: 106 LSQ: 64 IQ: 96, IPC: 2.4427
TH3 ROB: 4 LSQ: 2 IQ: 0, IPC: 0.0234
EPOCH ENDS
EPOCH STARTS
TH0 ROB: 4 LSQ: 1 IQ: 0 IPC: 0.0196
TH1 ROB: 4 LSQ: 0 IQ: 0, IPC: 0.0176
TH2 ROB: 106 LSQ: 64 IQ: 96, IPC: 2.4448
TH3 ROB: 4 LSQ: 2 IQ: 0, IPC: 0.0226
EPOCH ENDS
EPOCH STARTS
TH0 ROB: 4 LSQ: 1 IQ: 0 IPC: 0.0189
TH1 ROB: 4 LSQ: 0 IQ: 0, IPC: 0.0170
TH2 ROB: 106 LSQ: 64 IQ: 96, IPC: 2.4468
TH3 ROB: 4 LSQ: 2 IQ: 0, IPC: 0.0218
EPOCH ENDS
EPOCH STARTS
TH0 ROB: 4 LSQ: 1 IQ: 0 IPC: 0.0182
TH1 ROB: 4 LSQ: 0 IQ: 0, IPC: 0.0164
TH2 ROB: 106 LSQ: 64 IQ: 96, IPC: 2.4486
TH3 ROB: 4 LSQ: 2 IQ: 0, IPC: 0.0210
EPOCH ENDS
EPOCH STARTS
TH0 ROB: 4 LSQ: 1 IQ: 0 IPC: 0.0176
TH1 ROB: 4 LSQ: 0 IQ: 0, IPC: 0.0159
TH2 ROB: 106 LSQ: 64 IQ: 96, IPC: 2.4503
TH3 ROB: 4 LSQ: 2 IQ: 0, IPC: 0.0203
EPOCH ENDS
EPOCH STARTS
TH0 ROB: 4 LSQ: 1 IQ: 0 IPC: 0.0170
TH1 ROB: 4 LSQ: 0 IQ: 0, IPC: 0.0154
TH2 ROB: 106 LSQ: 64 IQ: 96, IPC: 2.4519
TH3 ROB: 4 LSQ: 2 IQ: 0, IPC: 0.0196
EPOCH ENDS
EPOCH STARTS
TH0 ROB: 4 LSQ: 1 IQ: 0 IPC: 0.0165
TH1 ROB: 4 LSQ: 0 IQ: 0, IPC: 0.0149
TH2 ROB: 106 LSQ: 64 IQ: 96, IPC: 2.4534
TH3 ROB: 4 LSQ: 2 IQ: 0, IPC: 0.0190
EPOCH ENDS
EPOCH STARTS
TH0 ROB: 4 LSQ: 1 IQ: 0 IPC: 0.0160
TH1 ROB: 4 LSQ: 0 IQ: 0, IPC: 0.0144
TH2 ROB: 106 LSQ: 64 IQ: 96, IPC: 2.4548
TH3 ROB: 4 LSQ: 2 IQ: 0, IPC: 0.0185
EPOCH ENDS
EPOCH STARTS
TH0 ROB: 4 LSQ: 1 IQ: 0 IPC: 0.0155
TH1 ROB: 4 LSQ: 0 IQ: 0, IPC: 0.0140
TH2 ROB: 106 LSQ: 64 IQ: 96, IPC: 2.4562
TH3 ROB: 4 LSQ: 2 IQ: 0, IPC: 0.0179
EPOCH ENDS
EPOCH STARTS
TH0 ROB: 4 LSQ: 1 IQ: 0 IPC: 0.0151
TH1 ROB: 4 LSQ: 0 IQ: 0, IPC: 0.0136
TH2 ROB: 106 LSQ: 64 IQ: 96, IPC: 2.4574
TH3 ROB: 4 LSQ: 2 IQ: 0, IPC: 0.0174
EPOCH ENDS
EPOCH STARTS
TH0 ROB: 4 LSQ: 1 IQ: 0 IPC: 0.0147
TH1 ROB: 4 LSQ: 0 IQ: 0, IPC: 0.0132
TH2 ROB: 106 LSQ: 64 IQ: 96, IPC: 2.4586
TH3 ROB: 4 LSQ: 2 IQ: 0, IPC: 0.0169
EPOCH ENDS
EPOCH STARTS
TH0 ROB: 4 LSQ: 1 IQ: 0 IPC: 0.0143
TH1 ROB: 4 LSQ: 0 IQ: 0, IPC: 0.0129
TH2 ROB: 106 LSQ: 64 IQ: 96, IPC: 2.4597
TH3 ROB: 4 LSQ: 2 IQ: 0, IPC: 0.0165
EPOCH ENDS
EPOCH STARTS
TH0 ROB: 4 LSQ: 1 IQ: 0 IPC: 0.0139
TH1 ROB: 4 LSQ: 0 IQ: 0, IPC: 0.0125
TH2 ROB: 106 LSQ: 64 IQ: 96, IPC: 2.4608
TH3 ROB: 4 LSQ: 2 IQ: 0, IPC: 0.0160
EPOCH ENDS
EPOCH STARTS
TH0 ROB: 4 LSQ: 1 IQ: 0 IPC: 0.0135
TH1 ROB: 4 LSQ: 0 IQ: 0, IPC: 0.0122
TH2 ROB: 106 LSQ: 64 IQ: 96, IPC: 2.4618
TH3 ROB: 4 LSQ: 2 IQ: 0, IPC: 0.0156
EPOCH ENDS
EPOCH STARTS
TH0 ROB: 4 LSQ: 1 IQ: 0 IPC: 0.0132
TH1 ROB: 4 LSQ: 0 IQ: 0, IPC: 0.0119
TH2 ROB: 106 LSQ: 64 IQ: 96, IPC: 2.4627
TH3 ROB: 4 LSQ: 2 IQ: 0, IPC: 0.0152
EPOCH ENDS
EPOCH STARTS
TH0 ROB: 4 LSQ: 1 IQ: 0 IPC: 0.0129
TH1 ROB: 4 LSQ: 0 IQ: 0, IPC: 0.0116
TH2 ROB: 106 LSQ: 64 IQ: 96, IPC: 2.4636
TH3 ROB: 4 LSQ: 2 IQ: 0, IPC: 0.0149
EPOCH ENDS
EPOCH STARTS
TH0 ROB: 4 LSQ: 1 IQ: 0 IPC: 0.0126
TH1 ROB: 4 LSQ: 0 IQ: 0, IPC: 0.0113
TH2 ROB: 106 LSQ: 64 IQ: 96, IPC: 2.4645
TH3 ROB: 4 LSQ: 2 IQ: 0, IPC: 0.0145
EPOCH ENDS
EPOCH STARTS
TH0 ROB: 4 LSQ: 1 IQ: 0 IPC: 0.0123
TH1 ROB: 4 LSQ: 0 IQ: 0, IPC: 0.0111
TH2 ROB: 106 LSQ: 64 IQ: 96, IPC: 2.4653
TH3 ROB: 4 LSQ: 2 IQ: 0, IPC: 0.0142
EPOCH ENDS
EPOCH STARTS
TH0 ROB: 4 LSQ: 1 IQ: 0 IPC: 0.0120
TH1 ROB: 4 LSQ: 0 IQ: 0, IPC: 0.0108
TH2 ROB: 106 LSQ: 64 IQ: 96, IPC: 2.4661
TH3 ROB: 4 LSQ: 2 IQ: 0, IPC: 0.0138
EPOCH ENDS
EPOCH STARTS
TH0 ROB: 4 LSQ: 1 IQ: 0 IPC: 0.0117
TH1 ROB: 4 LSQ: 0 IQ: 0, IPC: 0.0106
TH2 ROB: 106 LSQ: 64 IQ: 96, IPC: 2.4669
TH3 ROB: 4 LSQ: 2 IQ: 0, IPC: 0.0135
EPOCH ENDS
EPOCH STARTS
TH0 ROB: 4 LSQ: 1 IQ: 0 IPC: 0.0115
TH1 ROB: 4 LSQ: 0 IQ: 0, IPC: 0.0104
TH2 ROB: 106 LSQ: 64 IQ: 96, IPC: 2.4676
TH3 ROB: 4 LSQ: 2 IQ: 0, IPC: 0.0132
EPOCH ENDS
EPOCH STARTS
TH0 ROB: 4 LSQ: 1 IQ: 0 IPC: 0.0112
TH1 ROB: 4 LSQ: 0 IQ: 0, IPC: 0.0101
TH2 ROB: 106 LSQ: 64 IQ: 96, IPC: 2.4683
TH3 ROB: 4 LSQ: 2 IQ: 0, IPC: 0.0130
EPOCH ENDS
EPOCH STARTS
TH0 ROB: 4 LSQ: 1 IQ: 0 IPC: 0.0110
TH1 ROB: 4 LSQ: 0 IQ: 0, IPC: 0.0099
TH2 ROB: 106 LSQ: 64 IQ: 96, IPC: 2.4689
TH3 ROB: 4 LSQ: 2 IQ: 0, IPC: 0.0127
EPOCH ENDS
EPOCH STARTS
TH0 ROB: 4 LSQ: 1 IQ: 0 IPC: 0.0108
TH1 ROB: 4 LSQ: 0 IQ: 0, IPC: 0.0097
TH2 ROB: 106 LSQ: 64 IQ: 96, IPC: 2.4696
TH3 ROB: 4 LSQ: 2 IQ: 0, IPC: 0.0124
EPOCH ENDS
EPOCH STARTS
TH0 ROB: 4 LSQ: 1 IQ: 0 IPC: 0.0106
TH1 ROB: 4 LSQ: 0 IQ: 0, IPC: 0.0095
TH2 ROB: 106 LSQ: 64 IQ: 96, IPC: 2.4702
TH3 ROB: 4 LSQ: 2 IQ: 0, IPC: 0.0122
EPOCH ENDS
EPOCH STARTS
TH0 ROB: 4 LSQ: 1 IQ: 0 IPC: 0.0104
TH1 ROB: 4 LSQ: 0 IQ: 0, IPC: 0.0093
TH2 ROB: 106 LSQ: 64 IQ: 96, IPC: 2.4708
TH3 ROB: 4 LSQ: 2 IQ: 0, IPC: 0.0119
EPOCH ENDS
EPOCH STARTS
TH0 ROB: 4 LSQ: 1 IQ: 0 IPC: 0.0102
TH1 ROB: 4 LSQ: 0 IQ: 0, IPC: 0.0092
TH2 ROB: 106 LSQ: 64 IQ: 96, IPC: 2.4713
TH3 ROB: 4 LSQ: 2 IQ: 0, IPC: 0.0117
EPOCH ENDS
EPOCH STARTS
TH0 ROB: 4 LSQ: 1 IQ: 0 IPC: 0.0100
TH1 ROB: 4 LSQ: 0 IQ: 0, IPC: 0.0090
TH2 ROB: 106 LSQ: 64 IQ: 96, IPC: 2.4719
TH3 ROB: 4 LSQ: 2 IQ: 0, IPC: 0.0115
EPOCH ENDS
EPOCH STARTS
TH0 ROB: 4 LSQ: 1 IQ: 0 IPC: 0.0098
TH1 ROB: 4 LSQ: 0 IQ: 0, IPC: 0.0088
TH2 ROB: 106 LSQ: 64 IQ: 96, IPC: 2.4724
TH3 ROB: 4 LSQ: 2 IQ: 0, IPC: 0.0113
EPOCH ENDS
EPOCH STARTS
TH0 ROB: 4 LSQ: 1 IQ: 0 IPC: 0.0096
TH1 ROB: 4 LSQ: 0 IQ: 0, IPC: 0.0087
TH2 ROB: 106 LSQ: 64 IQ: 96, IPC: 2.4729
TH3 ROB: 4 LSQ: 2 IQ: 0, IPC: 0.0111
EPOCH ENDS
EPOCH STARTS
TH0 ROB: 4 LSQ: 1 IQ: 0 IPC: 0.0094
TH1 ROB: 4 LSQ: 0 IQ: 0, IPC: 0.0085
TH2 ROB: 106 LSQ: 64 IQ: 96, IPC: 2.4734
TH3 ROB: 4 LSQ: 2 IQ: 0, IPC: 0.0109
EPOCH ENDS
EPOCH STARTS
TH0 ROB: 4 LSQ: 1 IQ: 0 IPC: 0.0093
TH1 ROB: 4 LSQ: 0 IQ: 0, IPC: 0.0084
TH2 ROB: 106 LSQ: 64 IQ: 96, IPC: 2.4738
TH3 ROB: 4 LSQ: 2 IQ: 0, IPC: 0.0107
EPOCH ENDS
EPOCH STARTS
TH0 ROB: 4 LSQ: 1 IQ: 0 IPC: 0.0091
TH1 ROB: 4 LSQ: 0 IQ: 0, IPC: 0.0082
TH2 ROB: 106 LSQ: 64 IQ: 96, IPC: 2.4743
TH3 ROB: 4 LSQ: 2 IQ: 0, IPC: 0.0105
EPOCH ENDS
EPOCH STARTS
TH0 ROB: 4 LSQ: 1 IQ: 0 IPC: 0.0089
TH1 ROB: 4 LSQ: 0 IQ: 0, IPC: 0.0081
TH2 ROB: 106 LSQ: 64 IQ: 96, IPC: 2.4747
TH3 ROB: 4 LSQ: 2 IQ: 0, IPC: 0.0103
EPOCH ENDS
EPOCH STARTS
TH0 ROB: 4 LSQ: 1 IQ: 0 IPC: 0.0088
TH1 ROB: 4 LSQ: 0 IQ: 0, IPC: 0.0079
TH2 ROB: 106 LSQ: 64 IQ: 96, IPC: 2.4752
TH3 ROB: 4 LSQ: 2 IQ: 0, IPC: 0.0102
EPOCH ENDS
EPOCH STARTS
TH0 ROB: 4 LSQ: 1 IQ: 0 IPC: 0.0087
TH1 ROB: 4 LSQ: 0 IQ: 0, IPC: 0.0078
TH2 ROB: 106 LSQ: 64 IQ: 96, IPC: 2.4756
TH3 ROB: 4 LSQ: 2 IQ: 0, IPC: 0.0100
EPOCH ENDS
EPOCH STARTS
TH0 ROB: 4 LSQ: 1 IQ: 0 IPC: 0.0085
TH1 ROB: 4 LSQ: 0 IQ: 0, IPC: 0.0077
TH2 ROB: 106 LSQ: 64 IQ: 96, IPC: 2.4760
TH3 ROB: 4 LSQ: 2 IQ: 0, IPC: 0.0098
EPOCH ENDS
EPOCH STARTS
TH0 ROB: 4 LSQ: 1 IQ: 0 IPC: 0.0084
TH1 ROB: 4 LSQ: 0 IQ: 0, IPC: 0.0076
TH2 ROB: 106 LSQ: 64 IQ: 96, IPC: 2.4763
TH3 ROB: 4 LSQ: 2 IQ: 0, IPC: 0.0097
EPOCH ENDS
EPOCH STARTS
TH0 ROB: 4 LSQ: 1 IQ: 0 IPC: 0.0083
TH1 ROB: 4 LSQ: 0 IQ: 0, IPC: 0.0074
TH2 ROB: 106 LSQ: 64 IQ: 96, IPC: 2.4767
TH3 ROB: 4 LSQ: 2 IQ: 0, IPC: 0.0095
EPOCH ENDS
EPOCH STARTS
TH0 ROB: 4 LSQ: 1 IQ: 0 IPC: 0.0081
TH1 ROB: 4 LSQ: 0 IQ: 0, IPC: 0.0073
TH2 ROB: 106 LSQ: 64 IQ: 96, IPC: 2.4771
TH3 ROB: 4 LSQ: 2 IQ: 0, IPC: 0.0094
EPOCH ENDS
EPOCH STARTS
TH0 ROB: 4 LSQ: 1 IQ: 0 IPC: 0.0080
TH1 ROB: 4 LSQ: 0 IQ: 0, IPC: 0.0072
TH2 ROB: 106 LSQ: 64 IQ: 96, IPC: 2.4774
TH3 ROB: 4 LSQ: 2 IQ: 0, IPC: 0.0092
EPOCH ENDS
EPOCH STARTS
TH0 ROB: 4 LSQ: 1 IQ: 0 IPC: 0.0079
TH1 ROB: 4 LSQ: 0 IQ: 0, IPC: 0.0071
TH2 ROB: 106 LSQ: 64 IQ: 96, IPC: 2.4778
TH3 ROB: 4 LSQ: 2 IQ: 0, IPC: 0.0091
EPOCH ENDS
EPOCH STARTS
TH0 ROB: 4 LSQ: 1 IQ: 0 IPC: 0.0078
TH1 ROB: 4 LSQ: 0 IQ: 0, IPC: 0.0070
TH2 ROB: 106 LSQ: 64 IQ: 96, IPC: 2.4781
TH3 ROB: 4 LSQ: 2 IQ: 0, IPC: 0.0090
EPOCH ENDS
EPOCH STARTS
TH0 ROB: 4 LSQ: 1 IQ: 0 IPC: 0.0077
TH1 ROB: 4 LSQ: 0 IQ: 0, IPC: 0.0069
TH2 ROB: 106 LSQ: 64 IQ: 96, IPC: 2.4784
TH3 ROB: 4 LSQ: 2 IQ: 0, IPC: 0.0088
EPOCH ENDS
EPOCH STARTS
TH0 ROB: 4 LSQ: 1 IQ: 0 IPC: 0.0075
TH1 ROB: 4 LSQ: 0 IQ: 0, IPC: 0.0068
TH2 ROB: 106 LSQ: 64 IQ: 96, IPC: 2.4787
TH3 ROB: 4 LSQ: 2 IQ: 0, IPC: 0.0087
EPOCH ENDS
EPOCH STARTS
TH0 ROB: 4 LSQ: 1 IQ: 0 IPC: 0.0074
TH1 ROB: 4 LSQ: 0 IQ: 0, IPC: 0.0067
TH2 ROB: 106 LSQ: 64 IQ: 96, IPC: 2.4790
TH3 ROB: 4 LSQ: 2 IQ: 0, IPC: 0.0086
EPOCH ENDS
EPOCH STARTS
TH0 ROB: 4 LSQ: 1 IQ: 0 IPC: 0.0073
TH1 ROB: 4 LSQ: 0 IQ: 0, IPC: 0.0066
TH2 ROB: 106 LSQ: 64 IQ: 96, IPC: 2.4793
TH3 ROB: 4 LSQ: 2 IQ: 0, IPC: 0.0085
EPOCH ENDS
EPOCH STARTS
TH0 ROB: 4 LSQ: 1 IQ: 0 IPC: 0.0072
TH1 ROB: 4 LSQ: 0 IQ: 0, IPC: 0.0065
TH2 ROB: 106 LSQ: 64 IQ: 96, IPC: 2.4796
TH3 ROB: 4 LSQ: 2 IQ: 0, IPC: 0.0083
EPOCH ENDS
EPOCH STARTS
TH0 ROB: 4 LSQ: 1 IQ: 0 IPC: 0.0071
TH1 ROB: 4 LSQ: 0 IQ: 0, IPC: 0.0064
TH2 ROB: 106 LSQ: 64 IQ: 96, IPC: 2.4799
TH3 ROB: 4 LSQ: 2 IQ: 0, IPC: 0.0082
EPOCH ENDS
EPOCH STARTS
TH0 ROB: 4 LSQ: 1 IQ: 0 IPC: 0.0070
TH1 ROB: 4 LSQ: 0 IQ: 0, IPC: 0.0063
TH2 ROB: 106 LSQ: 64 IQ: 96, IPC: 2.4801
TH3 ROB: 4 LSQ: 2 IQ: 0, IPC: 0.0081
EPOCH ENDS
EPOCH STARTS
TH0 ROB: 4 LSQ: 1 IQ: 0 IPC: 0.0069
TH1 ROB: 4 LSQ: 0 IQ: 0, IPC: 0.0063
TH2 ROB: 106 LSQ: 64 IQ: 96, IPC: 2.4804
TH3 ROB: 4 LSQ: 2 IQ: 0, IPC: 0.0080
EPOCH ENDS
EPOCH STARTS
TH0 ROB: 4 LSQ: 1 IQ: 0 IPC: 0.0069
TH1 ROB: 4 LSQ: 0 IQ: 0, IPC: 0.0062
TH2 ROB: 106 LSQ: 64 IQ: 96, IPC: 2.4806
TH3 ROB: 4 LSQ: 2 IQ: 0, IPC: 0.0079
EPOCH ENDS
EPOCH STARTS
TH0 ROB: 4 LSQ: 1 IQ: 0 IPC: 0.0068
TH1 ROB: 4 LSQ: 0 IQ: 0, IPC: 0.0061
TH2 ROB: 106 LSQ: 64 IQ: 96, IPC: 2.4809
TH3 ROB: 4 LSQ: 2 IQ: 0, IPC: 0.0078
EPOCH ENDS
EPOCH STARTS
TH0 ROB: 4 LSQ: 1 IQ: 0 IPC: 0.0067
TH1 ROB: 4 LSQ: 0 IQ: 0, IPC: 0.0060
TH2 ROB: 106 LSQ: 64 IQ: 96, IPC: 2.4811
TH3 ROB: 4 LSQ: 2 IQ: 0, IPC: 0.0077
EPOCH ENDS
EPOCH STARTS
TH0 ROB: 4 LSQ: 1 IQ: 0 IPC: 0.0066
TH1 ROB: 4 LSQ: 0 IQ: 0, IPC: 0.0060
TH2 ROB: 106 LSQ: 64 IQ: 96, IPC: 2.4814
TH3 ROB: 4 LSQ: 2 IQ: 0, IPC: 0.0076
EPOCH ENDS
EPOCH STARTS
TH0 ROB: 4 LSQ: 1 IQ: 0 IPC: 0.0065
TH1 ROB: 4 LSQ: 0 IQ: 0, IPC: 0.0059
TH2 ROB: 106 LSQ: 64 IQ: 96, IPC: 2.4816
TH3 ROB: 4 LSQ: 2 IQ: 0, IPC: 0.0075
EPOCH ENDS
EPOCH STARTS
TH0 ROB: 4 LSQ: 1 IQ: 0 IPC: 0.0064
TH1 ROB: 4 LSQ: 0 IQ: 0, IPC: 0.0058
TH2 ROB: 106 LSQ: 64 IQ: 96, IPC: 2.4818
TH3 ROB: 4 LSQ: 2 IQ: 0, IPC: 0.0074
EPOCH ENDS
EPOCH STARTS
TH0 ROB: 4 LSQ: 1 IQ: 0 IPC: 0.0064
TH1 ROB: 4 LSQ: 0 IQ: 0, IPC: 0.0057
TH2 ROB: 106 LSQ: 64 IQ: 96, IPC: 2.4820
TH3 ROB: 4 LSQ: 2 IQ: 0, IPC: 0.0073
EPOCH ENDS
EPOCH STARTS
TH0 ROB: 4 LSQ: 1 IQ: 0 IPC: 0.0063
TH1 ROB: 4 LSQ: 0 IQ: 0, IPC: 0.0057
TH2 ROB: 106 LSQ: 64 IQ: 96, IPC: 2.4823
TH3 ROB: 4 LSQ: 2 IQ: 0, IPC: 0.0073
EPOCH ENDS
EPOCH STARTS
TH0 ROB: 4 LSQ: 1 IQ: 0 IPC: 0.0062
TH1 ROB: 4 LSQ: 0 IQ: 0, IPC: 0.0056
TH2 ROB: 106 LSQ: 64 IQ: 96, IPC: 2.4825
TH3 ROB: 4 LSQ: 2 IQ: 0, IPC: 0.0072
EPOCH ENDS
EPOCH STARTS
TH0 ROB: 4 LSQ: 1 IQ: 0 IPC: 0.0061
TH1 ROB: 4 LSQ: 0 IQ: 0, IPC: 0.0055
TH2 ROB: 106 LSQ: 64 IQ: 96, IPC: 2.4827
TH3 ROB: 4 LSQ: 2 IQ: 0, IPC: 0.0071
EPOCH ENDS
EPOCH STARTS
TH0 ROB: 4 LSQ: 1 IQ: 0 IPC: 0.0061
TH1 ROB: 4 LSQ: 0 IQ: 0, IPC: 0.0055
TH2 ROB: 106 LSQ: 64 IQ: 96, IPC: 2.4829
TH3 ROB: 4 LSQ: 2 IQ: 0, IPC: 0.0070
EPOCH ENDS
EPOCH STARTS
TH0 ROB: 4 LSQ: 1 IQ: 0 IPC: 0.0060
TH1 ROB: 4 LSQ: 0 IQ: 0, IPC: 0.0054
TH2 ROB: 106 LSQ: 64 IQ: 96, IPC: 2.4831
TH3 ROB: 4 LSQ: 2 IQ: 0, IPC: 0.0069
EPOCH ENDS
EPOCH STARTS
TH0 ROB: 4 LSQ: 1 IQ: 0 IPC: 0.0059
TH1 ROB: 4 LSQ: 0 IQ: 0, IPC: 0.0054
TH2 ROB: 106 LSQ: 64 IQ: 96, IPC: 2.4833
TH3 ROB: 4 LSQ: 2 IQ: 0, IPC: 0.0068
EPOCH ENDS
EPOCH STARTS
TH0 ROB: 4 LSQ: 1 IQ: 0 IPC: 0.0059
TH1 ROB: 4 LSQ: 0 IQ: 0, IPC: 0.0053
TH2 ROB: 106 LSQ: 64 IQ: 96, IPC: 2.4834
TH3 ROB: 4 LSQ: 2 IQ: 0, IPC: 0.0068
EPOCH ENDS
EPOCH STARTS
TH0 ROB: 4 LSQ: 1 IQ: 0 IPC: 0.0058
TH1 ROB: 4 LSQ: 0 IQ: 0, IPC: 0.0052
TH2 ROB: 106 LSQ: 64 IQ: 96, IPC: 2.4836
TH3 ROB: 4 LSQ: 2 IQ: 0, IPC: 0.0067
EPOCH ENDS
EPOCH STARTS
TH0 ROB: 4 LSQ: 1 IQ: 0 IPC: 0.0057
TH1 ROB: 4 LSQ: 0 IQ: 0, IPC: 0.0052
TH2 ROB: 106 LSQ: 64 IQ: 96, IPC: 2.4838
TH3 ROB: 4 LSQ: 2 IQ: 0, IPC: 0.0066
EPOCH ENDS
EPOCH STARTS
TH0 ROB: 4 LSQ: 1 IQ: 0 IPC: 0.0057
TH1 ROB: 4 LSQ: 0 IQ: 0, IPC: 0.0051
TH2 ROB: 106 LSQ: 64 IQ: 96, IPC: 2.4840
TH3 ROB: 4 LSQ: 2 IQ: 0, IPC: 0.0065
EPOCH ENDS
EPOCH STARTS
TH0 ROB: 4 LSQ: 1 IQ: 0 IPC: 0.0056
TH1 ROB: 4 LSQ: 0 IQ: 0, IPC: 0.0051
TH2 ROB: 106 LSQ: 64 IQ: 96, IPC: 2.4841
TH3 ROB: 4 LSQ: 2 IQ: 0, IPC: 0.0065
EPOCH ENDS
EPOCH STARTS
TH0 ROB: 4 LSQ: 1 IQ: 0 IPC: 0.0056
TH1 ROB: 4 LSQ: 0 IQ: 0, IPC: 0.0050
TH2 ROB: 106 LSQ: 64 IQ: 96, IPC: 2.4843
TH3 ROB: 4 LSQ: 2 IQ: 0, IPC: 0.0064
EPOCH ENDS
EPOCH STARTS
TH0 ROB: 4 LSQ: 1 IQ: 0 IPC: 0.0055
TH1 ROB: 4 LSQ: 0 IQ: 0, IPC: 0.0050
TH2 ROB: 106 LSQ: 64 IQ: 96, IPC: 2.4845
TH3 ROB: 4 LSQ: 2 IQ: 0, IPC: 0.0063
EPOCH ENDS
EPOCH STARTS
TH0 ROB: 4 LSQ: 1 IQ: 0 IPC: 0.0054
TH1 ROB: 4 LSQ: 0 IQ: 0, IPC: 0.0049
TH2 ROB: 106 LSQ: 64 IQ: 96, IPC: 2.4846
TH3 ROB: 4 LSQ: 2 IQ: 0, IPC: 0.0063
EPOCH ENDS
EPOCH STARTS
TH0 ROB: 4 LSQ: 1 IQ: 0 IPC: 0.0054
TH1 ROB: 4 LSQ: 0 IQ: 0, IPC: 0.0049
TH2 ROB: 106 LSQ: 64 IQ: 96, IPC: 2.4848
TH3 ROB: 4 LSQ: 2 IQ: 0, IPC: 0.0062
EPOCH ENDS
EPOCH STARTS
TH0 ROB: 4 LSQ: 1 IQ: 0 IPC: 0.0053
TH1 ROB: 4 LSQ: 0 IQ: 0, IPC: 0.0048
TH2 ROB: 106 LSQ: 64 IQ: 96, IPC: 2.4849
TH3 ROB: 4 LSQ: 2 IQ: 0, IPC: 0.0062
EPOCH ENDS
EPOCH STARTS
TH0 ROB: 4 LSQ: 1 IQ: 0 IPC: 0.0053
TH1 ROB: 4 LSQ: 0 IQ: 0, IPC: 0.0048
TH2 ROB: 106 LSQ: 64 IQ: 96, IPC: 2.4851
TH3 ROB: 4 LSQ: 2 IQ: 0, IPC: 0.0061
EPOCH ENDS
EPOCH STARTS
TH0 ROB: 4 LSQ: 1 IQ: 0 IPC: 0.0052
TH1 ROB: 4 LSQ: 0 IQ: 0, IPC: 0.0047
TH2 ROB: 106 LSQ: 64 IQ: 96, IPC: 2.4852
TH3 ROB: 4 LSQ: 2 IQ: 0, IPC: 0.0060
EPOCH ENDS
EPOCH STARTS
TH0 ROB: 4 LSQ: 1 IQ: 0 IPC: 0.0052
TH1 ROB: 4 LSQ: 0 IQ: 0, IPC: 0.0047
TH2 ROB: 106 LSQ: 64 IQ: 96, IPC: 2.4854
TH3 ROB: 4 LSQ: 2 IQ: 0, IPC: 0.0060
EPOCH ENDS
EPOCH STARTS
TH0 ROB: 4 LSQ: 1 IQ: 0 IPC: 0.0051
TH1 ROB: 4 LSQ: 0 IQ: 0, IPC: 0.0046
TH2 ROB: 106 LSQ: 64 IQ: 96, IPC: 2.4855
TH3 ROB: 4 LSQ: 2 IQ: 0, IPC: 0.0059
EPOCH ENDS
EPOCH STARTS
TH0 ROB: 4 LSQ: 1 IQ: 0 IPC: 0.0051
TH1 ROB: 4 LSQ: 0 IQ: 0, IPC: 0.0046
TH2 ROB: 106 LSQ: 64 IQ: 96, IPC: 2.4857
TH3 ROB: 4 LSQ: 2 IQ: 0, IPC: 0.0059
EPOCH ENDS
EPOCH STARTS
TH0 ROB: 4 LSQ: 1 IQ: 0 IPC: 0.0050
TH1 ROB: 4 LSQ: 0 IQ: 0, IPC: 0.0045
TH2 ROB: 106 LSQ: 64 IQ: 96, IPC: 2.4858
TH3 ROB: 4 LSQ: 2 IQ: 0, IPC: 0.0058
EPOCH ENDS
EPOCH STARTS
TH0 ROB: 4 LSQ: 1 IQ: 0 IPC: 0.0050
TH1 ROB: 4 LSQ: 0 IQ: 0, IPC: 0.0045
TH2 ROB: 106 LSQ: 64 IQ: 96, IPC: 2.4859
TH3 ROB: 4 LSQ: 2 IQ: 0, IPC: 0.0057
EPOCH ENDS
EPOCH STARTS
TH0 ROB: 4 LSQ: 1 IQ: 0 IPC: 0.0049
TH1 ROB: 4 LSQ: 0 IQ: 0, IPC: 0.0045
TH2 ROB: 106 LSQ: 64 IQ: 96, IPC: 2.4861
TH3 ROB: 4 LSQ: 2 IQ: 0, IPC: 0.0057
EPOCH ENDS
EPOCH STARTS
TH0 ROB: 4 LSQ: 1 IQ: 0 IPC: 0.0049
TH1 ROB: 4 LSQ: 0 IQ: 0, IPC: 0.0044
TH2 ROB: 106 LSQ: 64 IQ: 96, IPC: 2.4862
TH3 ROB: 4 LSQ: 2 IQ: 0, IPC: 0.0056
EPOCH ENDS
EPOCH STARTS
TH0 ROB: 4 LSQ: 1 IQ: 0 IPC: 0.0048
TH1 ROB: 4 LSQ: 0 IQ: 0, IPC: 0.0044
TH2 ROB: 106 LSQ: 64 IQ: 96, IPC: 2.4863
TH3 ROB: 4 LSQ: 2 IQ: 0, IPC: 0.0056
EPOCH ENDS
EPOCH STARTS
TH0 ROB: 4 LSQ: 1 IQ: 0 IPC: 0.0048
TH1 ROB: 4 LSQ: 0 IQ: 0, IPC: 0.0043
TH2 ROB: 106 LSQ: 64 IQ: 96, IPC: 2.4864
TH3 ROB: 4 LSQ: 2 IQ: 0, IPC: 0.0055
EPOCH ENDS
EPOCH STARTS
TH0 ROB: 4 LSQ: 1 IQ: 0 IPC: 0.0048
TH1 ROB: 4 LSQ: 0 IQ: 0, IPC: 0.0043
TH2 ROB: 106 LSQ: 64 IQ: 96, IPC: 2.4866
TH3 ROB: 4 LSQ: 2 IQ: 0, IPC: 0.0055
EPOCH ENDS
EPOCH STARTS
TH0 ROB: 4 LSQ: 1 IQ: 0 IPC: 0.0047
TH1 ROB: 4 LSQ: 0 IQ: 0, IPC: 0.0043
TH2 ROB: 106 LSQ: 64 IQ: 96, IPC: 2.4867
TH3 ROB: 4 LSQ: 2 IQ: 0, IPC: 0.0054
EPOCH ENDS
EPOCH STARTS
TH0 ROB: 4 LSQ: 1 IQ: 0 IPC: 0.0047
TH1 ROB: 4 LSQ: 0 IQ: 0, IPC: 0.0042
TH2 ROB: 106 LSQ: 64 IQ: 96, IPC: 2.4868
TH3 ROB: 4 LSQ: 2 IQ: 0, IPC: 0.0054
EPOCH ENDS
EPOCH STARTS
TH0 ROB: 4 LSQ: 1 IQ: 0 IPC: 0.0046
TH1 ROB: 4 LSQ: 0 IQ: 0, IPC: 0.0042
TH2 ROB: 106 LSQ: 64 IQ: 96, IPC: 2.4869
TH3 ROB: 4 LSQ: 2 IQ: 0, IPC: 0.0053
EPOCH ENDS
EPOCH STARTS
TH0 ROB: 4 LSQ: 1 IQ: 0 IPC: 0.0046
TH1 ROB: 4 LSQ: 0 IQ: 0, IPC: 0.0041
TH2 ROB: 106 LSQ: 64 IQ: 96, IPC: 2.4870
TH3 ROB: 4 LSQ: 2 IQ: 0, IPC: 0.0053
EPOCH ENDS
EPOCH STARTS
TH0 ROB: 4 LSQ: 1 IQ: 0 IPC: 0.0046
TH1 ROB: 4 LSQ: 0 IQ: 0, IPC: 0.0041
TH2 ROB: 106 LSQ: 64 IQ: 96, IPC: 2.4871
TH3 ROB: 4 LSQ: 2 IQ: 0, IPC: 0.0053
EPOCH ENDS
EPOCH STARTS
TH0 ROB: 4 LSQ: 1 IQ: 0 IPC: 0.0045
TH1 ROB: 4 LSQ: 0 IQ: 0, IPC: 0.0041
TH2 ROB: 106 LSQ: 64 IQ: 96, IPC: 2.4873
TH3 ROB: 4 LSQ: 2 IQ: 0, IPC: 0.0052
EPOCH ENDS
EPOCH STARTS
TH0 ROB: 4 LSQ: 1 IQ: 0 IPC: 0.0045
TH1 ROB: 4 LSQ: 0 IQ: 0, IPC: 0.0040
TH2 ROB: 106 LSQ: 64 IQ: 96, IPC: 2.4874
TH3 ROB: 4 LSQ: 2 IQ: 0, IPC: 0.0052
EPOCH ENDS
EPOCH STARTS
TH0 ROB: 4 LSQ: 1 IQ: 0 IPC: 0.0044
TH1 ROB: 4 LSQ: 0 IQ: 0, IPC: 0.0040
TH2 ROB: 106 LSQ: 64 IQ: 96, IPC: 2.4875
TH3 ROB: 4 LSQ: 2 IQ: 0, IPC: 0.0051
EPOCH ENDS
EPOCH STARTS
TH0 ROB: 4 LSQ: 1 IQ: 0 IPC: 0.0044
TH1 ROB: 4 LSQ: 0 IQ: 0, IPC: 0.0040
TH2 ROB: 106 LSQ: 64 IQ: 96, IPC: 2.4876
TH3 ROB: 4 LSQ: 2 IQ: 0, IPC: 0.0051
EPOCH ENDS
EPOCH STARTS
TH0 ROB: 4 LSQ: 1 IQ: 0 IPC: 0.0044
TH1 ROB: 4 LSQ: 0 IQ: 0, IPC: 0.0039
TH2 ROB: 106 LSQ: 64 IQ: 96, IPC: 2.4877
TH3 ROB: 4 LSQ: 2 IQ: 0, IPC: 0.0050
EPOCH ENDS
EPOCH STARTS
TH0 ROB: 4 LSQ: 1 IQ: 0 IPC: 0.0043
TH1 ROB: 4 LSQ: 0 IQ: 0, IPC: 0.0039
TH2 ROB: 106 LSQ: 64 IQ: 96, IPC: 2.4878
TH3 ROB: 4 LSQ: 2 IQ: 0, IPC: 0.0050
EPOCH ENDS
EPOCH STARTS
TH0 ROB: 4 LSQ: 1 IQ: 0 IPC: 0.0043
TH1 ROB: 4 LSQ: 0 IQ: 0, IPC: 0.0039
TH2 ROB: 106 LSQ: 64 IQ: 96, IPC: 2.4879
TH3 ROB: 4 LSQ: 2 IQ: 0, IPC: 0.0050
EPOCH ENDS
EPOCH STARTS
TH0 ROB: 4 LSQ: 1 IQ: 0 IPC: 0.0043
TH1 ROB: 4 LSQ: 0 IQ: 0, IPC: 0.0038
TH2 ROB: 106 LSQ: 64 IQ: 96, IPC: 2.4880
TH3 ROB: 4 LSQ: 2 IQ: 0, IPC: 0.0049
EPOCH ENDS
EPOCH STARTS
TH0 ROB: 4 LSQ: 1 IQ: 0 IPC: 0.0042
TH1 ROB: 4 LSQ: 0 IQ: 0, IPC: 0.0038
TH2 ROB: 106 LSQ: 64 IQ: 96, IPC: 2.4881
TH3 ROB: 4 LSQ: 2 IQ: 0, IPC: 0.0049
EPOCH ENDS
EPOCH STARTS
TH0 ROB: 4 LSQ: 1 IQ: 0 IPC: 0.0042
TH1 ROB: 4 LSQ: 0 IQ: 0, IPC: 0.0038
TH2 ROB: 106 LSQ: 64 IQ: 96, IPC: 2.4882
TH3 ROB: 4 LSQ: 2 IQ: 0, IPC: 0.0048
EPOCH ENDS
EPOCH STARTS
TH0 ROB: 4 LSQ: 1 IQ: 0 IPC: 0.0042
TH1 ROB: 4 LSQ: 0 IQ: 0, IPC: 0.0037
TH2 ROB: 106 LSQ: 64 IQ: 96, IPC: 2.4883
TH3 ROB: 4 LSQ: 2 IQ: 0, IPC: 0.0048
EPOCH ENDS
EPOCH STARTS
TH0 ROB: 4 LSQ: 1 IQ: 0 IPC: 0.0041
TH1 ROB: 4 LSQ: 0 IQ: 0, IPC: 0.0037
TH2 ROB: 106 LSQ: 64 IQ: 96, IPC: 2.4884
TH3 ROB: 4 LSQ: 2 IQ: 0, IPC: 0.0048
EPOCH ENDS
EPOCH STARTS
TH0 ROB: 4 LSQ: 1 IQ: 0 IPC: 0.0041
TH1 ROB: 4 LSQ: 0 IQ: 0, IPC: 0.0037
TH2 ROB: 106 LSQ: 64 IQ: 96, IPC: 2.4884
TH3 ROB: 4 LSQ: 2 IQ: 0, IPC: 0.0047
EPOCH ENDS
EPOCH STARTS
TH0 ROB: 4 LSQ: 1 IQ: 0 IPC: 0.0041
TH1 ROB: 4 LSQ: 0 IQ: 0, IPC: 0.0037
TH2 ROB: 106 LSQ: 64 IQ: 96, IPC: 2.4885
TH3 ROB: 4 LSQ: 2 IQ: 0, IPC: 0.0047
EPOCH ENDS
EPOCH STARTS
TH0 ROB: 4 LSQ: 1 IQ: 0 IPC: 0.0040
TH1 ROB: 4 LSQ: 0 IQ: 0, IPC: 0.0036
TH2 ROB: 106 LSQ: 64 IQ: 96, IPC: 2.4886
TH3 ROB: 4 LSQ: 2 IQ: 0, IPC: 0.0046
EPOCH ENDS
EPOCH STARTS
TH0 ROB: 4 LSQ: 1 IQ: 0 IPC: 0.0040
TH1 ROB: 4 LSQ: 0 IQ: 0, IPC: 0.0036
TH2 ROB: 106 LSQ: 64 IQ: 96, IPC: 2.4887
TH3 ROB: 4 LSQ: 2 IQ: 0, IPC: 0.0046
EPOCH ENDS
EPOCH STARTS
TH0 ROB: 4 LSQ: 1 IQ: 0 IPC: 0.0040
TH1 ROB: 4 LSQ: 0 IQ: 0, IPC: 0.0036
TH2 ROB: 106 LSQ: 64 IQ: 96, IPC: 2.4888
TH3 ROB: 4 LSQ: 2 IQ: 0, IPC: 0.0046
EPOCH ENDS
EPOCH STARTS
TH0 ROB: 4 LSQ: 1 IQ: 0 IPC: 0.0039
TH1 ROB: 4 LSQ: 0 IQ: 0, IPC: 0.0036
TH2 ROB: 106 LSQ: 64 IQ: 96, IPC: 2.4889
TH3 ROB: 4 LSQ: 2 IQ: 0, IPC: 0.0045
EPOCH ENDS
EPOCH STARTS
TH0 ROB: 4 LSQ: 1 IQ: 0 IPC: 0.0039
TH1 ROB: 4 LSQ: 0 IQ: 0, IPC: 0.0035
TH2 ROB: 106 LSQ: 64 IQ: 96, IPC: 2.4890
TH3 ROB: 4 LSQ: 2 IQ: 0, IPC: 0.0045
EPOCH ENDS
EPOCH STARTS
TH0 ROB: 4 LSQ: 1 IQ: 0 IPC: 0.0039
TH1 ROB: 4 LSQ: 0 IQ: 0, IPC: 0.0035
TH2 ROB: 106 LSQ: 64 IQ: 96, IPC: 2.4890
TH3 ROB: 4 LSQ: 2 IQ: 0, IPC: 0.0045
EPOCH ENDS
EPOCH STARTS
TH0 ROB: 4 LSQ: 1 IQ: 0 IPC: 0.0039
TH1 ROB: 4 LSQ: 0 IQ: 0, IPC: 0.0035
TH2 ROB: 106 LSQ: 64 IQ: 96, IPC: 2.4891
TH3 ROB: 4 LSQ: 2 IQ: 0, IPC: 0.0044
EPOCH ENDS
EPOCH STARTS
TH0 ROB: 4 LSQ: 1 IQ: 0 IPC: 0.0038
TH1 ROB: 4 LSQ: 0 IQ: 0, IPC: 0.0035
TH2 ROB: 106 LSQ: 64 IQ: 96, IPC: 2.4892
TH3 ROB: 4 LSQ: 2 IQ: 0, IPC: 0.0044
EPOCH ENDS
EPOCH STARTS
TH0 ROB: 4 LSQ: 1 IQ: 0 IPC: 0.0038
TH1 ROB: 4 LSQ: 0 IQ: 0, IPC: 0.0034
TH2 ROB: 106 LSQ: 64 IQ: 96, IPC: 2.4893
TH3 ROB: 4 LSQ: 2 IQ: 0, IPC: 0.0044
EPOCH ENDS
EPOCH STARTS
TH0 ROB: 4 LSQ: 1 IQ: 0 IPC: 0.0038
TH1 ROB: 4 LSQ: 0 IQ: 0, IPC: 0.0034
TH2 ROB: 106 LSQ: 64 IQ: 96, IPC: 2.4894
TH3 ROB: 4 LSQ: 2 IQ: 0, IPC: 0.0044
EPOCH ENDS
EPOCH STARTS
TH0 ROB: 4 LSQ: 1 IQ: 0 IPC: 0.0037
TH1 ROB: 4 LSQ: 0 IQ: 0, IPC: 0.0034
TH2 ROB: 106 LSQ: 64 IQ: 96, IPC: 2.4894
TH3 ROB: 4 LSQ: 2 IQ: 0, IPC: 0.0043
EPOCH ENDS
EPOCH STARTS
TH0 ROB: 4 LSQ: 1 IQ: 0 IPC: 0.0037
TH1 ROB: 4 LSQ: 0 IQ: 0, IPC: 0.0034
TH2 ROB: 106 LSQ: 64 IQ: 96, IPC: 2.4895
TH3 ROB: 4 LSQ: 2 IQ: 0, IPC: 0.0043
EPOCH ENDS
EPOCH STARTS
TH0 ROB: 4 LSQ: 1 IQ: 0 IPC: 0.0037
TH1 ROB: 4 LSQ: 0 IQ: 0, IPC: 0.0033
TH2 ROB: 106 LSQ: 64 IQ: 96, IPC: 2.4896
TH3 ROB: 4 LSQ: 2 IQ: 0, IPC: 0.0043
EPOCH ENDS
EPOCH STARTS
TH0 ROB: 4 LSQ: 1 IQ: 0 IPC: 0.0037
TH1 ROB: 4 LSQ: 0 IQ: 0, IPC: 0.0033
TH2 ROB: 106 LSQ: 64 IQ: 96, IPC: 2.4896
TH3 ROB: 4 LSQ: 2 IQ: 0, IPC: 0.0042
EPOCH ENDS
EPOCH STARTS
TH0 ROB: 4 LSQ: 1 IQ: 0 IPC: 0.0036
TH1 ROB: 4 LSQ: 0 IQ: 0, IPC: 0.0033
TH2 ROB: 106 LSQ: 64 IQ: 96, IPC: 2.4897
TH3 ROB: 4 LSQ: 2 IQ: 0, IPC: 0.0042
EPOCH ENDS
EPOCH STARTS
TH0 ROB: 4 LSQ: 1 IQ: 0 IPC: 0.0036
TH1 ROB: 4 LSQ: 0 IQ: 0, IPC: 0.0033
TH2 ROB: 106 LSQ: 64 IQ: 96, IPC: 2.4898
TH3 ROB: 4 LSQ: 2 IQ: 0, IPC: 0.0042
EPOCH ENDS
EPOCH STARTS
TH0 ROB: 4 LSQ: 1 IQ: 0 IPC: 0.0036
TH1 ROB: 4 LSQ: 0 IQ: 0, IPC: 0.0032
TH2 ROB: 106 LSQ: 64 IQ: 96, IPC: 2.4899
TH3 ROB: 4 LSQ: 2 IQ: 0, IPC: 0.0041
EPOCH ENDS
EPOCH STARTS
TH0 ROB: 4 LSQ: 1 IQ: 0 IPC: 0.0036
TH1 ROB: 4 LSQ: 0 IQ: 0, IPC: 0.0032
TH2 ROB: 106 LSQ: 64 IQ: 96, IPC: 2.4899
TH3 ROB: 4 LSQ: 2 IQ: 0, IPC: 0.0041
EPOCH ENDS
EPOCH STARTS
TH0 ROB: 4 LSQ: 1 IQ: 0 IPC: 0.0035
TH1 ROB: 4 LSQ: 0 IQ: 0, IPC: 0.0032
TH2 ROB: 106 LSQ: 64 IQ: 96, IPC: 2.4900
TH3 ROB: 4 LSQ: 2 IQ: 0, IPC: 0.0041
EPOCH ENDS
EPOCH STARTS
TH0 ROB: 4 LSQ: 1 IQ: 0 IPC: 0.0035
TH1 ROB: 4 LSQ: 0 IQ: 0, IPC: 0.0032
TH2 ROB: 106 LSQ: 64 IQ: 96, IPC: 2.4901
TH3 ROB: 4 LSQ: 2 IQ: 0, IPC: 0.0041
EPOCH ENDS
EPOCH STARTS
TH0 ROB: 4 LSQ: 1 IQ: 0 IPC: 0.0035
TH1 ROB: 4 LSQ: 0 IQ: 0, IPC: 0.0032
TH2 ROB: 106 LSQ: 64 IQ: 96, IPC: 2.4901
TH3 ROB: 4 LSQ: 2 IQ: 0, IPC: 0.0040
EPOCH ENDS
EPOCH STARTS
TH0 ROB: 4 LSQ: 1 IQ: 0 IPC: 0.0035
TH1 ROB: 4 LSQ: 0 IQ: 0, IPC: 0.0031
TH2 ROB: 106 LSQ: 64 IQ: 96, IPC: 2.4902
TH3 ROB: 4 LSQ: 2 IQ: 0, IPC: 0.0040
EPOCH ENDS
EPOCH STARTS
TH0 ROB: 4 LSQ: 1 IQ: 0 IPC: 0.0035
TH1 ROB: 4 LSQ: 0 IQ: 0, IPC: 0.0031
TH2 ROB: 106 LSQ: 64 IQ: 96, IPC: 2.4903
TH3 ROB: 4 LSQ: 2 IQ: 0, IPC: 0.0040
EPOCH ENDS
EPOCH STARTS
TH0 ROB: 4 LSQ: 1 IQ: 0 IPC: 0.0034
TH1 ROB: 4 LSQ: 0 IQ: 0, IPC: 0.0031
TH2 ROB: 106 LSQ: 64 IQ: 96, IPC: 2.4903
TH3 ROB: 4 LSQ: 2 IQ: 0, IPC: 0.0040
EPOCH ENDS
EPOCH STARTS
TH0 ROB: 4 LSQ: 1 IQ: 0 IPC: 0.0034
TH1 ROB: 4 LSQ: 0 IQ: 0, IPC: 0.0031
TH2 ROB: 106 LSQ: 64 IQ: 96, IPC: 2.4904
TH3 ROB: 4 LSQ: 2 IQ: 0, IPC: 0.0039
EPOCH ENDS
EPOCH STARTS
TH0 ROB: 4 LSQ: 1 IQ: 0 IPC: 0.0034
TH1 ROB: 4 LSQ: 0 IQ: 0, IPC: 0.0031
TH2 ROB: 106 LSQ: 64 IQ: 96, IPC: 2.4904
TH3 ROB: 4 LSQ: 2 IQ: 0, IPC: 0.0039
EPOCH ENDS
EPOCH STARTS
TH0 ROB: 4 LSQ: 1 IQ: 0 IPC: 0.0034
TH1 ROB: 4 LSQ: 0 IQ: 0, IPC: 0.0030
TH2 ROB: 106 LSQ: 64 IQ: 96, IPC: 2.4905
TH3 ROB: 4 LSQ: 2 IQ: 0, IPC: 0.0039
EPOCH ENDS
EPOCH STARTS
TH0 ROB: 4 LSQ: 1 IQ: 0 IPC: 0.0033
TH1 ROB: 4 LSQ: 0 IQ: 0, IPC: 0.0030
TH2 ROB: 106 LSQ: 64 IQ: 96, IPC: 2.4906
TH3 ROB: 4 LSQ: 2 IQ: 0, IPC: 0.0039
EPOCH ENDS
EPOCH STARTS
TH0 ROB: 4 LSQ: 1 IQ: 0 IPC: 0.0033
TH1 ROB: 4 LSQ: 0 IQ: 0, IPC: 0.0030
TH2 ROB: 106 LSQ: 64 IQ: 96, IPC: 2.4906
TH3 ROB: 4 LSQ: 2 IQ: 0, IPC: 0.0038
EPOCH ENDS
EPOCH STARTS
TH0 ROB: 4 LSQ: 1 IQ: 0 IPC: 0.0033
TH1 ROB: 4 LSQ: 0 IQ: 0, IPC: 0.0030
TH2 ROB: 106 LSQ: 64 IQ: 96, IPC: 2.4907
TH3 ROB: 4 LSQ: 2 IQ: 0, IPC: 0.0038
EPOCH ENDS
EPOCH STARTS
TH0 ROB: 4 LSQ: 1 IQ: 0 IPC: 0.0033
TH1 ROB: 4 LSQ: 0 IQ: 0, IPC: 0.0030
TH2 ROB: 106 LSQ: 64 IQ: 96, IPC: 2.4907
TH3 ROB: 4 LSQ: 2 IQ: 0, IPC: 0.0038
EPOCH ENDS
EPOCH STARTS
TH0 ROB: 4 LSQ: 1 IQ: 0 IPC: 0.0033
TH1 ROB: 4 LSQ: 0 IQ: 0, IPC: 0.0029
TH2 ROB: 106 LSQ: 64 IQ: 96, IPC: 2.4908
TH3 ROB: 4 LSQ: 2 IQ: 0, IPC: 0.0038
EPOCH ENDS
EPOCH STARTS
TH0 ROB: 4 LSQ: 1 IQ: 0 IPC: 0.0032
TH1 ROB: 4 LSQ: 0 IQ: 0, IPC: 0.0029
TH2 ROB: 106 LSQ: 64 IQ: 96, IPC: 2.4909
TH3 ROB: 4 LSQ: 2 IQ: 0, IPC: 0.0037
EPOCH ENDS
EPOCH STARTS
TH0 ROB: 4 LSQ: 1 IQ: 0 IPC: 0.0032
TH1 ROB: 4 LSQ: 0 IQ: 0, IPC: 0.0029
TH2 ROB: 106 LSQ: 64 IQ: 96, IPC: 2.4909
TH3 ROB: 4 LSQ: 2 IQ: 0, IPC: 0.0037
EPOCH ENDS
EPOCH STARTS
TH0 ROB: 4 LSQ: 1 IQ: 0 IPC: 0.0032
TH1 ROB: 4 LSQ: 0 IQ: 0, IPC: 0.0029
TH2 ROB: 106 LSQ: 64 IQ: 96, IPC: 2.4910
TH3 ROB: 4 LSQ: 2 IQ: 0, IPC: 0.0037
EPOCH ENDS
EPOCH STARTS
TH0 ROB: 4 LSQ: 1 IQ: 0 IPC: 0.0032
TH1 ROB: 4 LSQ: 0 IQ: 0, IPC: 0.0029
TH2 ROB: 106 LSQ: 64 IQ: 96, IPC: 2.4910
TH3 ROB: 4 LSQ: 2 IQ: 0, IPC: 0.0037
EPOCH ENDS
EPOCH STARTS
TH0 ROB: 4 LSQ: 1 IQ: 0 IPC: 0.0032
TH1 ROB: 4 LSQ: 0 IQ: 0, IPC: 0.0029
TH2 ROB: 106 LSQ: 64 IQ: 96, IPC: 2.4911
TH3 ROB: 4 LSQ: 2 IQ: 0, IPC: 0.0036
EPOCH ENDS
EPOCH STARTS
TH0 ROB: 4 LSQ: 1 IQ: 0 IPC: 0.0031
TH1 ROB: 4 LSQ: 0 IQ: 0, IPC: 0.0028
TH2 ROB: 106 LSQ: 64 IQ: 96, IPC: 2.4911
TH3 ROB: 4 LSQ: 2 IQ: 0, IPC: 0.0036
EPOCH ENDS
EPOCH STARTS
TH0 ROB: 4 LSQ: 1 IQ: 0 IPC: 0.0031
TH1 ROB: 4 LSQ: 0 IQ: 0, IPC: 0.0028
TH2 ROB: 106 LSQ: 64 IQ: 96, IPC: 2.4912
TH3 ROB: 4 LSQ: 2 IQ: 0, IPC: 0.0036
EPOCH ENDS
EPOCH STARTS
TH0 ROB: 4 LSQ: 1 IQ: 0 IPC: 0.0031
TH1 ROB: 4 LSQ: 0 IQ: 0, IPC: 0.0028
TH2 ROB: 106 LSQ: 64 IQ: 96, IPC: 2.4912
TH3 ROB: 4 LSQ: 2 IQ: 0, IPC: 0.0036
EPOCH ENDS
EPOCH STARTS
TH0 ROB: 4 LSQ: 1 IQ: 0 IPC: 0.0031
TH1 ROB: 4 LSQ: 0 IQ: 0, IPC: 0.0028
TH2 ROB: 106 LSQ: 64 IQ: 96, IPC: 2.4913
TH3 ROB: 4 LSQ: 2 IQ: 0, IPC: 0.0036
EPOCH ENDS
EPOCH STARTS
TH0 ROB: 4 LSQ: 1 IQ: 0 IPC: 0.0031
TH1 ROB: 4 LSQ: 0 IQ: 0, IPC: 0.0028
TH2 ROB: 106 LSQ: 64 IQ: 96, IPC: 2.4913
TH3 ROB: 4 LSQ: 2 IQ: 0, IPC: 0.0035
EPOCH ENDS
EPOCH STARTS
TH0 ROB: 4 LSQ: 1 IQ: 0 IPC: 0.0031
TH1 ROB: 4 LSQ: 0 IQ: 0, IPC: 0.0028
TH2 ROB: 106 LSQ: 64 IQ: 96, IPC: 2.4914
TH3 ROB: 4 LSQ: 2 IQ: 0, IPC: 0.0035
EPOCH ENDS
EPOCH STARTS
TH0 ROB: 4 LSQ: 1 IQ: 0 IPC: 0.0030
TH1 ROB: 4 LSQ: 0 IQ: 0, IPC: 0.0027
TH2 ROB: 106 LSQ: 64 IQ: 96, IPC: 2.4914
TH3 ROB: 4 LSQ: 2 IQ: 0, IPC: 0.0035
EPOCH ENDS
EPOCH STARTS
TH0 ROB: 4 LSQ: 1 IQ: 0 IPC: 0.0030
TH1 ROB: 4 LSQ: 0 IQ: 0, IPC: 0.0027
TH2 ROB: 106 LSQ: 64 IQ: 96, IPC: 2.4915
TH3 ROB: 4 LSQ: 2 IQ: 0, IPC: 0.0035
EPOCH ENDS
EPOCH STARTS
TH0 ROB: 4 LSQ: 1 IQ: 0 IPC: 0.0030
TH1 ROB: 4 LSQ: 0 IQ: 0, IPC: 0.0027
TH2 ROB: 106 LSQ: 64 IQ: 96, IPC: 2.4915
TH3 ROB: 4 LSQ: 2 IQ: 0, IPC: 0.0035
EPOCH ENDS
EPOCH STARTS
TH0 ROB: 4 LSQ: 1 IQ: 0 IPC: 0.0030
TH1 ROB: 4 LSQ: 0 IQ: 0, IPC: 0.0027
TH2 ROB: 106 LSQ: 64 IQ: 96, IPC: 2.4916
TH3 ROB: 4 LSQ: 2 IQ: 0, IPC: 0.0034
EPOCH ENDS
EPOCH STARTS
TH0 ROB: 4 LSQ: 1 IQ: 0 IPC: 0.0030
TH1 ROB: 4 LSQ: 0 IQ: 0, IPC: 0.0027
TH2 ROB: 106 LSQ: 64 IQ: 96, IPC: 2.4916
TH3 ROB: 4 LSQ: 2 IQ: 0, IPC: 0.0034
EPOCH ENDS
EPOCH STARTS
TH0 ROB: 4 LSQ: 1 IQ: 0 IPC: 0.0029
TH1 ROB: 4 LSQ: 0 IQ: 0, IPC: 0.0027
TH2 ROB: 106 LSQ: 64 IQ: 96, IPC: 2.4917
TH3 ROB: 4 LSQ: 2 IQ: 0, IPC: 0.0034
EPOCH ENDS
EPOCH STARTS
TH0 ROB: 4 LSQ: 1 IQ: 0 IPC: 0.0029
TH1 ROB: 4 LSQ: 0 IQ: 0, IPC: 0.0026
TH2 ROB: 106 LSQ: 64 IQ: 96, IPC: 2.4917
TH3 ROB: 4 LSQ: 2 IQ: 0, IPC: 0.0034
EPOCH ENDS
EPOCH STARTS
TH0 ROB: 4 LSQ: 1 IQ: 0 IPC: 0.0029
TH1 ROB: 4 LSQ: 0 IQ: 0, IPC: 0.0026
TH2 ROB: 106 LSQ: 64 IQ: 96, IPC: 2.4918
TH3 ROB: 4 LSQ: 2 IQ: 0, IPC: 0.0034
EPOCH ENDS
EPOCH STARTS
TH0 ROB: 4 LSQ: 1 IQ: 0 IPC: 0.0029
TH1 ROB: 4 LSQ: 0 IQ: 0, IPC: 0.0026
TH2 ROB: 106 LSQ: 64 IQ: 96, IPC: 2.4918
TH3 ROB: 4 LSQ: 2 IQ: 0, IPC: 0.0033
EPOCH ENDS
EPOCH STARTS
TH0 ROB: 4 LSQ: 1 IQ: 0 IPC: 0.0029
TH1 ROB: 4 LSQ: 0 IQ: 0, IPC: 0.0026
TH2 ROB: 106 LSQ: 64 IQ: 96, IPC: 2.4919
TH3 ROB: 4 LSQ: 2 IQ: 0, IPC: 0.0033
EPOCH ENDS
EPOCH STARTS
TH0 ROB: 4 LSQ: 1 IQ: 0 IPC: 0.0029
TH1 ROB: 4 LSQ: 0 IQ: 0, IPC: 0.0026
TH2 ROB: 106 LSQ: 64 IQ: 96, IPC: 2.4919
TH3 ROB: 4 LSQ: 2 IQ: 0, IPC: 0.0033
EPOCH ENDS
EPOCH STARTS
TH0 ROB: 4 LSQ: 1 IQ: 0 IPC: 0.0029
TH1 ROB: 4 LSQ: 0 IQ: 0, IPC: 0.0026
TH2 ROB: 106 LSQ: 64 IQ: 96, IPC: 2.4919
TH3 ROB: 4 LSQ: 2 IQ: 0, IPC: 0.0033
EPOCH ENDS
EPOCH STARTS
TH0 ROB: 4 LSQ: 1 IQ: 0 IPC: 0.0028
TH1 ROB: 4 LSQ: 0 IQ: 0, IPC: 0.0026
TH2 ROB: 106 LSQ: 64 IQ: 96, IPC: 2.4920
TH3 ROB: 4 LSQ: 2 IQ: 0, IPC: 0.0033
EPOCH ENDS
EPOCH STARTS
TH0 ROB: 4 LSQ: 1 IQ: 0 IPC: 0.0028
TH1 ROB: 4 LSQ: 0 IQ: 0, IPC: 0.0025
TH2 ROB: 106 LSQ: 64 IQ: 96, IPC: 2.4920
TH3 ROB: 4 LSQ: 2 IQ: 0, IPC: 0.0033
EPOCH ENDS
EPOCH STARTS
TH0 ROB: 4 LSQ: 1 IQ: 0 IPC: 0.0028
TH1 ROB: 4 LSQ: 0 IQ: 0, IPC: 0.0025
TH2 ROB: 106 LSQ: 64 IQ: 96, IPC: 2.4921
TH3 ROB: 4 LSQ: 2 IQ: 0, IPC: 0.0032
EPOCH ENDS
EPOCH STARTS
TH0 ROB: 4 LSQ: 1 IQ: 0 IPC: 0.0028
TH1 ROB: 4 LSQ: 0 IQ: 0, IPC: 0.0025
TH2 ROB: 106 LSQ: 64 IQ: 96, IPC: 2.4921
TH3 ROB: 4 LSQ: 2 IQ: 0, IPC: 0.0032
EPOCH ENDS
EPOCH STARTS
TH0 ROB: 4 LSQ: 1 IQ: 0 IPC: 0.0028
TH1 ROB: 4 LSQ: 0 IQ: 0, IPC: 0.0025
TH2 ROB: 106 LSQ: 64 IQ: 96, IPC: 2.4922
TH3 ROB: 4 LSQ: 2 IQ: 0, IPC: 0.0032
EPOCH ENDS
EPOCH STARTS
TH0 ROB: 4 LSQ: 1 IQ: 0 IPC: 0.0028
TH1 ROB: 4 LSQ: 0 IQ: 0, IPC: 0.0025
TH2 ROB: 106 LSQ: 64 IQ: 96, IPC: 2.4922
TH3 ROB: 4 LSQ: 2 IQ: 0, IPC: 0.0032
EPOCH ENDS
EPOCH STARTS
TH0 ROB: 4 LSQ: 1 IQ: 0 IPC: 0.0028
TH1 ROB: 4 LSQ: 0 IQ: 0, IPC: 0.0025
TH2 ROB: 106 LSQ: 64 IQ: 96, IPC: 2.4922
TH3 ROB: 4 LSQ: 2 IQ: 0, IPC: 0.0032
EPOCH ENDS
EPOCH STARTS
TH0 ROB: 4 LSQ: 1 IQ: 0 IPC: 0.0027
TH1 ROB: 4 LSQ: 0 IQ: 0, IPC: 0.0025
TH2 ROB: 106 LSQ: 64 IQ: 96, IPC: 2.4923
TH3 ROB: 4 LSQ: 2 IQ: 0, IPC: 0.0032
EPOCH ENDS
EPOCH STARTS
TH0 ROB: 4 LSQ: 1 IQ: 0 IPC: 0.0027
TH1 ROB: 4 LSQ: 0 IQ: 0, IPC: 0.0025
TH2 ROB: 106 LSQ: 64 IQ: 96, IPC: 2.4923
TH3 ROB: 4 LSQ: 2 IQ: 0, IPC: 0.0031
EPOCH ENDS
EPOCH STARTS
TH0 ROB: 4 LSQ: 1 IQ: 0 IPC: 0.0027
TH1 ROB: 4 LSQ: 0 IQ: 0, IPC: 0.0024
TH2 ROB: 106 LSQ: 64 IQ: 96, IPC: 2.4924
TH3 ROB: 4 LSQ: 2 IQ: 0, IPC: 0.0031
EPOCH ENDS
EPOCH STARTS
TH0 ROB: 4 LSQ: 1 IQ: 0 IPC: 0.0027
TH1 ROB: 4 LSQ: 0 IQ: 0, IPC: 0.0024
TH2 ROB: 106 LSQ: 64 IQ: 96, IPC: 2.4924
TH3 ROB: 4 LSQ: 2 IQ: 0, IPC: 0.0031
EPOCH ENDS
EPOCH STARTS
TH0 ROB: 4 LSQ: 1 IQ: 0 IPC: 0.0027
TH1 ROB: 4 LSQ: 0 IQ: 0, IPC: 0.0024
TH2 ROB: 106 LSQ: 64 IQ: 96, IPC: 2.4924
TH3 ROB: 4 LSQ: 2 IQ: 0, IPC: 0.0031
EPOCH ENDS
EPOCH STARTS
TH0 ROB: 4 LSQ: 1 IQ: 0 IPC: 0.0027
TH1 ROB: 4 LSQ: 0 IQ: 0, IPC: 0.0024
TH2 ROB: 106 LSQ: 64 IQ: 96, IPC: 2.4925
TH3 ROB: 4 LSQ: 2 IQ: 0, IPC: 0.0031
EPOCH ENDS
EPOCH STARTS
TH0 ROB: 4 LSQ: 1 IQ: 0 IPC: 0.0027
TH1 ROB: 4 LSQ: 0 IQ: 0, IPC: 0.0024
TH2 ROB: 106 LSQ: 64 IQ: 96, IPC: 2.4925
TH3 ROB: 4 LSQ: 2 IQ: 0, IPC: 0.0031
EPOCH ENDS
EPOCH STARTS
TH0 ROB: 4 LSQ: 1 IQ: 0 IPC: 0.0026
TH1 ROB: 4 LSQ: 0 IQ: 0, IPC: 0.0024
TH2 ROB: 106 LSQ: 64 IQ: 96, IPC: 2.4925
TH3 ROB: 4 LSQ: 2 IQ: 0, IPC: 0.0030
EPOCH ENDS
EPOCH STARTS
TH0 ROB: 4 LSQ: 1 IQ: 0 IPC: 0.0026
TH1 ROB: 4 LSQ: 0 IQ: 0, IPC: 0.0024
TH2 ROB: 106 LSQ: 64 IQ: 96, IPC: 2.4926
TH3 ROB: 4 LSQ: 2 IQ: 0, IPC: 0.0030
EPOCH ENDS
EPOCH STARTS
TH0 ROB: 4 LSQ: 1 IQ: 0 IPC: 0.0026
TH1 ROB: 4 LSQ: 0 IQ: 0, IPC: 0.0024
TH2 ROB: 106 LSQ: 64 IQ: 96, IPC: 2.4926
TH3 ROB: 4 LSQ: 2 IQ: 0, IPC: 0.0030
EPOCH ENDS
EPOCH STARTS
TH0 ROB: 4 LSQ: 1 IQ: 0 IPC: 0.0026
TH1 ROB: 4 LSQ: 0 IQ: 0, IPC: 0.0023
TH2 ROB: 106 LSQ: 64 IQ: 96, IPC: 2.4927
TH3 ROB: 4 LSQ: 2 IQ: 0, IPC: 0.0030
EPOCH ENDS
EPOCH STARTS
TH0 ROB: 4 LSQ: 1 IQ: 0 IPC: 0.0026
TH1 ROB: 4 LSQ: 0 IQ: 0, IPC: 0.0023
TH2 ROB: 106 LSQ: 64 IQ: 96, IPC: 2.4927
TH3 ROB: 4 LSQ: 2 IQ: 0, IPC: 0.0030
EPOCH ENDS
EPOCH STARTS
TH0 ROB: 4 LSQ: 1 IQ: 0 IPC: 0.0026
TH1 ROB: 4 LSQ: 0 IQ: 0, IPC: 0.0023
TH2 ROB: 106 LSQ: 64 IQ: 96, IPC: 2.4927
TH3 ROB: 4 LSQ: 2 IQ: 0, IPC: 0.0030
EPOCH ENDS
EPOCH STARTS
TH0 ROB: 4 LSQ: 1 IQ: 0 IPC: 0.0026
TH1 ROB: 4 LSQ: 0 IQ: 0, IPC: 0.0023
TH2 ROB: 106 LSQ: 64 IQ: 96, IPC: 2.4928
TH3 ROB: 4 LSQ: 2 IQ: 0, IPC: 0.0030
EPOCH ENDS
EPOCH STARTS
TH0 ROB: 4 LSQ: 1 IQ: 0 IPC: 0.0026
TH1 ROB: 4 LSQ: 0 IQ: 0, IPC: 0.0023
TH2 ROB: 106 LSQ: 64 IQ: 96, IPC: 2.4928
TH3 ROB: 4 LSQ: 2 IQ: 0, IPC: 0.0029
EPOCH ENDS
EPOCH STARTS
TH0 ROB: 4 LSQ: 1 IQ: 0 IPC: 0.0025
TH1 ROB: 4 LSQ: 0 IQ: 0, IPC: 0.0023
TH2 ROB: 106 LSQ: 64 IQ: 96, IPC: 2.4928
TH3 ROB: 4 LSQ: 2 IQ: 0, IPC: 0.0029
EPOCH ENDS
EPOCH STARTS
TH0 ROB: 4 LSQ: 1 IQ: 0 IPC: 0.0025
TH1 ROB: 4 LSQ: 0 IQ: 0, IPC: 0.0023
TH2 ROB: 106 LSQ: 64 IQ: 96, IPC: 2.4929
TH3 ROB: 4 LSQ: 2 IQ: 0, IPC: 0.0029
EPOCH ENDS
EPOCH STARTS
TH0 ROB: 4 LSQ: 1 IQ: 0 IPC: 0.0025
TH1 ROB: 4 LSQ: 0 IQ: 0, IPC: 0.0023
TH2 ROB: 106 LSQ: 64 IQ: 96, IPC: 2.4929
TH3 ROB: 4 LSQ: 2 IQ: 0, IPC: 0.0029
EPOCH ENDS
EPOCH STARTS
TH0 ROB: 4 LSQ: 1 IQ: 0 IPC: 0.0025
TH1 ROB: 4 LSQ: 0 IQ: 0, IPC: 0.0023
TH2 ROB: 106 LSQ: 64 IQ: 96, IPC: 2.4929
TH3 ROB: 4 LSQ: 2 IQ: 0, IPC: 0.0029
EPOCH ENDS
EPOCH STARTS
TH0 ROB: 4 LSQ: 1 IQ: 0 IPC: 0.0025
TH1 ROB: 4 LSQ: 0 IQ: 0, IPC: 0.0022
TH2 ROB: 106 LSQ: 64 IQ: 96, IPC: 2.4930
TH3 ROB: 4 LSQ: 2 IQ: 0, IPC: 0.0029
EPOCH ENDS
EPOCH STARTS
TH0 ROB: 4 LSQ: 1 IQ: 0 IPC: 0.0025
TH1 ROB: 4 LSQ: 0 IQ: 0, IPC: 0.0022
TH2 ROB: 106 LSQ: 64 IQ: 96, IPC: 2.4930
TH3 ROB: 4 LSQ: 2 IQ: 0, IPC: 0.0029
EPOCH ENDS
EPOCH STARTS
TH0 ROB: 4 LSQ: 1 IQ: 0 IPC: 0.0025
TH1 ROB: 4 LSQ: 0 IQ: 0, IPC: 0.0022
TH2 ROB: 106 LSQ: 64 IQ: 96, IPC: 2.4930
TH3 ROB: 4 LSQ: 2 IQ: 0, IPC: 0.0028
EPOCH ENDS
EPOCH STARTS
TH0 ROB: 4 LSQ: 1 IQ: 0 IPC: 0.0025
TH1 ROB: 4 LSQ: 0 IQ: 0, IPC: 0.0022
TH2 ROB: 106 LSQ: 64 IQ: 96, IPC: 2.4931
TH3 ROB: 4 LSQ: 2 IQ: 0, IPC: 0.0028
EPOCH ENDS
EPOCH STARTS
TH0 ROB: 4 LSQ: 1 IQ: 0 IPC: 0.0024
TH1 ROB: 4 LSQ: 0 IQ: 0, IPC: 0.0022
TH2 ROB: 106 LSQ: 64 IQ: 96, IPC: 2.4931
TH3 ROB: 4 LSQ: 2 IQ: 0, IPC: 0.0028
EPOCH ENDS
EPOCH STARTS
TH0 ROB: 4 LSQ: 1 IQ: 0 IPC: 0.0024
TH1 ROB: 4 LSQ: 0 IQ: 0, IPC: 0.0022
TH2 ROB: 106 LSQ: 64 IQ: 96, IPC: 2.4931
TH3 ROB: 4 LSQ: 2 IQ: 0, IPC: 0.0028
EPOCH ENDS
EPOCH STARTS
TH0 ROB: 4 LSQ: 1 IQ: 0 IPC: 0.0024
TH1 ROB: 4 LSQ: 0 IQ: 0, IPC: 0.0022
TH2 ROB: 106 LSQ: 64 IQ: 96, IPC: 2.4932
TH3 ROB: 4 LSQ: 2 IQ: 0, IPC: 0.0028
EPOCH ENDS
EPOCH STARTS
TH0 ROB: 4 LSQ: 1 IQ: 0 IPC: 0.0024
TH1 ROB: 4 LSQ: 0 IQ: 0, IPC: 0.0022
TH2 ROB: 106 LSQ: 64 IQ: 96, IPC: 2.4932
TH3 ROB: 4 LSQ: 2 IQ: 0, IPC: 0.0028
EPOCH ENDS
EPOCH STARTS
TH0 ROB: 4 LSQ: 1 IQ: 0 IPC: 0.0024
TH1 ROB: 4 LSQ: 0 IQ: 0, IPC: 0.0022
TH2 ROB: 106 LSQ: 64 IQ: 96, IPC: 2.4932
TH3 ROB: 4 LSQ: 2 IQ: 0, IPC: 0.0028
EPOCH ENDS
EPOCH STARTS
TH0 ROB: 4 LSQ: 1 IQ: 0 IPC: 0.0024
TH1 ROB: 4 LSQ: 0 IQ: 0, IPC: 0.0022
TH2 ROB: 106 LSQ: 64 IQ: 96, IPC: 2.4933
TH3 ROB: 4 LSQ: 2 IQ: 0, IPC: 0.0028
EPOCH ENDS
EPOCH STARTS
TH0 ROB: 4 LSQ: 1 IQ: 0 IPC: 0.0024
TH1 ROB: 4 LSQ: 0 IQ: 0, IPC: 0.0021
TH2 ROB: 106 LSQ: 64 IQ: 96, IPC: 2.4933
TH3 ROB: 4 LSQ: 2 IQ: 0, IPC: 0.0027
EPOCH ENDS
EPOCH STARTS
TH0 ROB: 4 LSQ: 1 IQ: 0 IPC: 0.0024
TH1 ROB: 4 LSQ: 0 IQ: 0, IPC: 0.0021
TH2 ROB: 106 LSQ: 64 IQ: 96, IPC: 2.4933
TH3 ROB: 4 LSQ: 2 IQ: 0, IPC: 0.0027
EPOCH ENDS
EPOCH STARTS
TH0 ROB: 4 LSQ: 1 IQ: 0 IPC: 0.0024
TH1 ROB: 4 LSQ: 0 IQ: 0, IPC: 0.0021
TH2 ROB: 106 LSQ: 64 IQ: 96, IPC: 2.4933
TH3 ROB: 4 LSQ: 2 IQ: 0, IPC: 0.0027
EPOCH ENDS
EPOCH STARTS
TH0 ROB: 4 LSQ: 1 IQ: 0 IPC: 0.0023
TH1 ROB: 4 LSQ: 0 IQ: 0, IPC: 0.0021
TH2 ROB: 106 LSQ: 64 IQ: 96, IPC: 2.4934
TH3 ROB: 4 LSQ: 2 IQ: 0, IPC: 0.0027
EPOCH ENDS
EPOCH STARTS
TH0 ROB: 4 LSQ: 1 IQ: 0 IPC: 0.0023
TH1 ROB: 4 LSQ: 0 IQ: 0, IPC: 0.0021
TH2 ROB: 106 LSQ: 64 IQ: 96, IPC: 2.4934
TH3 ROB: 4 LSQ: 2 IQ: 0, IPC: 0.0027
EPOCH ENDS
EPOCH STARTS
TH0 ROB: 4 LSQ: 1 IQ: 0 IPC: 0.0023
TH1 ROB: 4 LSQ: 0 IQ: 0, IPC: 0.0021
TH2 ROB: 106 LSQ: 64 IQ: 96, IPC: 2.4934
TH3 ROB: 4 LSQ: 2 IQ: 0, IPC: 0.0027
EPOCH ENDS
EPOCH STARTS
TH0 ROB: 4 LSQ: 1 IQ: 0 IPC: 0.0023
TH1 ROB: 4 LSQ: 0 IQ: 0, IPC: 0.0021
TH2 ROB: 106 LSQ: 64 IQ: 96, IPC: 2.4935
TH3 ROB: 4 LSQ: 2 IQ: 0, IPC: 0.0027
EPOCH ENDS
EPOCH STARTS
TH0 ROB: 4 LSQ: 1 IQ: 0 IPC: 0.0023
TH1 ROB: 4 LSQ: 0 IQ: 0, IPC: 0.0021
TH2 ROB: 106 LSQ: 64 IQ: 96, IPC: 2.4935
TH3 ROB: 4 LSQ: 2 IQ: 0, IPC: 0.0027
EPOCH ENDS
EPOCH STARTS
TH0 ROB: 4 LSQ: 1 IQ: 0 IPC: 0.0023
TH1 ROB: 4 LSQ: 0 IQ: 0, IPC: 0.0021
TH2 ROB: 106 LSQ: 64 IQ: 96, IPC: 2.4935
TH3 ROB: 4 LSQ: 2 IQ: 0, IPC: 0.0026
EPOCH ENDS
EPOCH STARTS
TH0 ROB: 4 LSQ: 1 IQ: 0 IPC: 0.0023
TH1 ROB: 4 LSQ: 0 IQ: 0, IPC: 0.0021
TH2 ROB: 106 LSQ: 64 IQ: 96, IPC: 2.4935
TH3 ROB: 4 LSQ: 2 IQ: 0, IPC: 0.0026
EPOCH ENDS
EPOCH STARTS
TH0 ROB: 4 LSQ: 1 IQ: 0 IPC: 0.0023
TH1 ROB: 4 LSQ: 0 IQ: 0, IPC: 0.0021
TH2 ROB: 106 LSQ: 64 IQ: 96, IPC: 2.4936
TH3 ROB: 4 LSQ: 2 IQ: 0, IPC: 0.0026
EPOCH ENDS
EPOCH STARTS
TH0 ROB: 4 LSQ: 1 IQ: 0 IPC: 0.0023
TH1 ROB: 4 LSQ: 0 IQ: 0, IPC: 0.0020
TH2 ROB: 106 LSQ: 64 IQ: 96, IPC: 2.4936
TH3 ROB: 4 LSQ: 2 IQ: 0, IPC: 0.0026
EPOCH ENDS
EPOCH STARTS
TH0 ROB: 4 LSQ: 1 IQ: 0 IPC: 0.0023
TH1 ROB: 4 LSQ: 0 IQ: 0, IPC: 0.0020
TH2 ROB: 106 LSQ: 64 IQ: 96, IPC: 2.4936
TH3 ROB: 4 LSQ: 2 IQ: 0, IPC: 0.0026
EPOCH ENDS
EPOCH STARTS
TH0 ROB: 4 LSQ: 1 IQ: 0 IPC: 0.0022
TH1 ROB: 4 LSQ: 0 IQ: 0, IPC: 0.0020
TH2 ROB: 106 LSQ: 64 IQ: 96, IPC: 2.4937
TH3 ROB: 4 LSQ: 2 IQ: 0, IPC: 0.0026
EPOCH ENDS
EPOCH STARTS
TH0 ROB: 4 LSQ: 1 IQ: 0 IPC: 0.0022
TH1 ROB: 4 LSQ: 0 IQ: 0, IPC: 0.0020
TH2 ROB: 106 LSQ: 64 IQ: 96, IPC: 2.4937
TH3 ROB: 4 LSQ: 2 IQ: 0, IPC: 0.0026
EPOCH ENDS
EPOCH STARTS
TH0 ROB: 4 LSQ: 1 IQ: 0 IPC: 0.0022
TH1 ROB: 4 LSQ: 0 IQ: 0, IPC: 0.0020
TH2 ROB: 106 LSQ: 64 IQ: 96, IPC: 2.4937
TH3 ROB: 4 LSQ: 2 IQ: 0, IPC: 0.0026
EPOCH ENDS
EPOCH STARTS
TH0 ROB: 4 LSQ: 1 IQ: 0 IPC: 0.0022
TH1 ROB: 4 LSQ: 0 IQ: 0, IPC: 0.0020
TH2 ROB: 106 LSQ: 64 IQ: 96, IPC: 2.4937
TH3 ROB: 4 LSQ: 2 IQ: 0, IPC: 0.0026
EPOCH ENDS
EPOCH STARTS
TH0 ROB: 4 LSQ: 1 IQ: 0 IPC: 0.0022
TH1 ROB: 4 LSQ: 0 IQ: 0, IPC: 0.0020
TH2 ROB: 106 LSQ: 64 IQ: 96, IPC: 2.4938
TH3 ROB: 4 LSQ: 2 IQ: 0, IPC: 0.0025
EPOCH ENDS
EPOCH STARTS
TH0 ROB: 4 LSQ: 1 IQ: 0 IPC: 0.0022
TH1 ROB: 4 LSQ: 0 IQ: 0, IPC: 0.0020
TH2 ROB: 106 LSQ: 64 IQ: 96, IPC: 2.4938
TH3 ROB: 4 LSQ: 2 IQ: 0, IPC: 0.0025
EPOCH ENDS
EPOCH STARTS
TH0 ROB: 4 LSQ: 1 IQ: 0 IPC: 0.0022
TH1 ROB: 4 LSQ: 0 IQ: 0, IPC: 0.0020
TH2 ROB: 106 LSQ: 64 IQ: 96, IPC: 2.4938
TH3 ROB: 4 LSQ: 2 IQ: 0, IPC: 0.0025
EPOCH ENDS
EPOCH STARTS
TH0 ROB: 4 LSQ: 1 IQ: 0 IPC: 0.0022
TH1 ROB: 4 LSQ: 0 IQ: 0, IPC: 0.0020
TH2 ROB: 106 LSQ: 64 IQ: 96, IPC: 2.4938
TH3 ROB: 4 LSQ: 2 IQ: 0, IPC: 0.0025
EPOCH ENDS
EPOCH STARTS
TH0 ROB: 4 LSQ: 1 IQ: 0 IPC: 0.0022
TH1 ROB: 4 LSQ: 0 IQ: 0, IPC: 0.0020
TH2 ROB: 106 LSQ: 64 IQ: 96, IPC: 2.4939
TH3 ROB: 4 LSQ: 2 IQ: 0, IPC: 0.0025
EPOCH ENDS
EPOCH STARTS
TH0 ROB: 4 LSQ: 1 IQ: 0 IPC: 0.0022
TH1 ROB: 4 LSQ: 0 IQ: 0, IPC: 0.0020
TH2 ROB: 106 LSQ: 64 IQ: 96, IPC: 2.4939
TH3 ROB: 4 LSQ: 2 IQ: 0, IPC: 0.0025
EPOCH ENDS
EPOCH STARTS
TH0 ROB: 4 LSQ: 1 IQ: 0 IPC: 0.0022
TH1 ROB: 4 LSQ: 0 IQ: 0, IPC: 0.0019
TH2 ROB: 106 LSQ: 64 IQ: 96, IPC: 2.4939
TH3 ROB: 4 LSQ: 2 IQ: 0, IPC: 0.0025
EPOCH ENDS
EPOCH STARTS
TH0 ROB: 4 LSQ: 1 IQ: 0 IPC: 0.0021
TH1 ROB: 4 LSQ: 0 IQ: 0, IPC: 0.0019
TH2 ROB: 106 LSQ: 64 IQ: 96, IPC: 2.4939
TH3 ROB: 4 LSQ: 2 IQ: 0, IPC: 0.0025
EPOCH ENDS
EPOCH STARTS
TH0 ROB: 4 LSQ: 1 IQ: 0 IPC: 0.0021
TH1 ROB: 4 LSQ: 0 IQ: 0, IPC: 0.0019
TH2 ROB: 106 LSQ: 64 IQ: 96, IPC: 2.4940
TH3 ROB: 4 LSQ: 2 IQ: 0, IPC: 0.0025
EPOCH ENDS
EPOCH STARTS
TH0 ROB: 4 LSQ: 1 IQ: 0 IPC: 0.0021
TH1 ROB: 4 LSQ: 0 IQ: 0, IPC: 0.0019
TH2 ROB: 106 LSQ: 64 IQ: 96, IPC: 2.4940
TH3 ROB: 4 LSQ: 2 IQ: 0, IPC: 0.0025
EPOCH ENDS
EPOCH STARTS
TH0 ROB: 4 LSQ: 1 IQ: 0 IPC: 0.0021
TH1 ROB: 4 LSQ: 0 IQ: 0, IPC: 0.0019
TH2 ROB: 106 LSQ: 64 IQ: 96, IPC: 2.4940
TH3 ROB: 4 LSQ: 2 IQ: 0, IPC: 0.0024
EPOCH ENDS
EPOCH STARTS
TH0 ROB: 4 LSQ: 1 IQ: 0 IPC: 0.0021
TH1 ROB: 4 LSQ: 0 IQ: 0, IPC: 0.0019
TH2 ROB: 106 LSQ: 64 IQ: 96, IPC: 2.4940
TH3 ROB: 4 LSQ: 2 IQ: 0, IPC: 0.0024
EPOCH ENDS
EPOCH STARTS
TH0 ROB: 4 LSQ: 1 IQ: 0 IPC: 0.0021
TH1 ROB: 4 LSQ: 0 IQ: 0, IPC: 0.0019
TH2 ROB: 106 LSQ: 64 IQ: 96, IPC: 2.4941
TH3 ROB: 4 LSQ: 2 IQ: 0, IPC: 0.0024
EPOCH ENDS
EPOCH STARTS
TH0 ROB: 4 LSQ: 1 IQ: 0 IPC: 0.0021
TH1 ROB: 4 LSQ: 0 IQ: 0, IPC: 0.0019
TH2 ROB: 106 LSQ: 64 IQ: 96, IPC: 2.4941
TH3 ROB: 4 LSQ: 2 IQ: 0, IPC: 0.0024
EPOCH ENDS
EPOCH STARTS
TH0 ROB: 4 LSQ: 1 IQ: 0 IPC: 0.0021
TH1 ROB: 4 LSQ: 0 IQ: 0, IPC: 0.0019
TH2 ROB: 106 LSQ: 64 IQ: 96, IPC: 2.4941
TH3 ROB: 4 LSQ: 2 IQ: 0, IPC: 0.0024
EPOCH ENDS
EPOCH STARTS
TH0 ROB: 4 LSQ: 1 IQ: 0 IPC: 0.0021
TH1 ROB: 4 LSQ: 0 IQ: 0, IPC: 0.0019
TH2 ROB: 106 LSQ: 64 IQ: 96, IPC: 2.4941
TH3 ROB: 4 LSQ: 2 IQ: 0, IPC: 0.0024
EPOCH ENDS
EPOCH STARTS
TH0 ROB: 4 LSQ: 1 IQ: 0 IPC: 0.0021
TH1 ROB: 4 LSQ: 0 IQ: 0, IPC: 0.0019
TH2 ROB: 106 LSQ: 64 IQ: 96, IPC: 2.4942
TH3 ROB: 4 LSQ: 2 IQ: 0, IPC: 0.0024
EPOCH ENDS
EPOCH STARTS
TH0 ROB: 4 LSQ: 1 IQ: 0 IPC: 0.0021
TH1 ROB: 4 LSQ: 0 IQ: 0, IPC: 0.0019
TH2 ROB: 106 LSQ: 64 IQ: 96, IPC: 2.4942
TH3 ROB: 4 LSQ: 2 IQ: 0, IPC: 0.0024
EPOCH ENDS
EPOCH STARTS
TH0 ROB: 4 LSQ: 1 IQ: 0 IPC: 0.0021
TH1 ROB: 4 LSQ: 0 IQ: 0, IPC: 0.0019
TH2 ROB: 106 LSQ: 64 IQ: 96, IPC: 2.4942
TH3 ROB: 4 LSQ: 2 IQ: 0, IPC: 0.0024
EPOCH ENDS
EPOCH STARTS
TH0 ROB: 4 LSQ: 1 IQ: 0 IPC: 0.0020
TH1 ROB: 4 LSQ: 0 IQ: 0, IPC: 0.0018
TH2 ROB: 106 LSQ: 64 IQ: 96, IPC: 2.4942
TH3 ROB: 4 LSQ: 2 IQ: 0, IPC: 0.0024
EPOCH ENDS
EPOCH STARTS
TH0 ROB: 4 LSQ: 1 IQ: 0 IPC: 0.0020
TH1 ROB: 4 LSQ: 0 IQ: 0, IPC: 0.0018
TH2 ROB: 106 LSQ: 64 IQ: 96, IPC: 2.4942
TH3 ROB: 4 LSQ: 2 IQ: 0, IPC: 0.0024
EPOCH ENDS
EPOCH STARTS
TH0 ROB: 4 LSQ: 1 IQ: 0 IPC: 0.0020
TH1 ROB: 4 LSQ: 0 IQ: 0, IPC: 0.0018
TH2 ROB: 106 LSQ: 64 IQ: 96, IPC: 2.4943
TH3 ROB: 4 LSQ: 2 IQ: 0, IPC: 0.0023
EPOCH ENDS
EPOCH STARTS
TH0 ROB: 4 LSQ: 1 IQ: 0 IPC: 0.0020
TH1 ROB: 4 LSQ: 0 IQ: 0, IPC: 0.0018
TH2 ROB: 106 LSQ: 64 IQ: 96, IPC: 2.4943
TH3 ROB: 4 LSQ: 2 IQ: 0, IPC: 0.0023
EPOCH ENDS
EPOCH STARTS
TH0 ROB: 4 LSQ: 1 IQ: 0 IPC: 0.0020
TH1 ROB: 4 LSQ: 0 IQ: 0, IPC: 0.0018
TH2 ROB: 106 LSQ: 64 IQ: 96, IPC: 2.4943
TH3 ROB: 4 LSQ: 2 IQ: 0, IPC: 0.0023
EPOCH ENDS
EPOCH STARTS
TH0 ROB: 4 LSQ: 1 IQ: 0 IPC: 0.0020
TH1 ROB: 4 LSQ: 0 IQ: 0, IPC: 0.0018
TH2 ROB: 106 LSQ: 64 IQ: 96, IPC: 2.4943
TH3 ROB: 4 LSQ: 2 IQ: 0, IPC: 0.0023
EPOCH ENDS
EPOCH STARTS
TH0 ROB: 4 LSQ: 1 IQ: 0 IPC: 0.0020
TH1 ROB: 4 LSQ: 0 IQ: 0, IPC: 0.0018
TH2 ROB: 106 LSQ: 64 IQ: 96, IPC: 2.4944
TH3 ROB: 4 LSQ: 2 IQ: 0, IPC: 0.0023
EPOCH ENDS
EPOCH STARTS
TH0 ROB: 4 LSQ: 1 IQ: 0 IPC: 0.0020
TH1 ROB: 4 LSQ: 0 IQ: 0, IPC: 0.0018
TH2 ROB: 106 LSQ: 64 IQ: 96, IPC: 2.4944
TH3 ROB: 4 LSQ: 2 IQ: 0, IPC: 0.0023
EPOCH ENDS
EPOCH STARTS
TH0 ROB: 4 LSQ: 1 IQ: 0 IPC: 0.0020
TH1 ROB: 4 LSQ: 0 IQ: 0, IPC: 0.0018
TH2 ROB: 106 LSQ: 64 IQ: 96, IPC: 2.4944
TH3 ROB: 4 LSQ: 2 IQ: 0, IPC: 0.0023
EPOCH ENDS
EPOCH STARTS
TH0 ROB: 4 LSQ: 1 IQ: 0 IPC: 0.0020
TH1 ROB: 4 LSQ: 0 IQ: 0, IPC: 0.0018
TH2 ROB: 106 LSQ: 64 IQ: 96, IPC: 2.4944
TH3 ROB: 4 LSQ: 2 IQ: 0, IPC: 0.0023
EPOCH ENDS
EPOCH STARTS
TH0 ROB: 4 LSQ: 1 IQ: 0 IPC: 0.0020
TH1 ROB: 4 LSQ: 0 IQ: 0, IPC: 0.0018
TH2 ROB: 106 LSQ: 64 IQ: 96, IPC: 2.4944
TH3 ROB: 4 LSQ: 2 IQ: 0, IPC: 0.0023
EPOCH ENDS
EPOCH STARTS
TH0 ROB: 4 LSQ: 1 IQ: 0 IPC: 0.0020
TH1 ROB: 4 LSQ: 0 IQ: 0, IPC: 0.0018
TH2 ROB: 106 LSQ: 64 IQ: 96, IPC: 2.4945
TH3 ROB: 4 LSQ: 2 IQ: 0, IPC: 0.0023
EPOCH ENDS
EPOCH STARTS
TH0 ROB: 4 LSQ: 1 IQ: 0 IPC: 0.0020
TH1 ROB: 4 LSQ: 0 IQ: 0, IPC: 0.0018
TH2 ROB: 106 LSQ: 64 IQ: 96, IPC: 2.4945
TH3 ROB: 4 LSQ: 2 IQ: 0, IPC: 0.0023
EPOCH ENDS
EPOCH STARTS
TH0 ROB: 4 LSQ: 1 IQ: 0 IPC: 0.0019
TH1 ROB: 4 LSQ: 0 IQ: 0, IPC: 0.0018
TH2 ROB: 106 LSQ: 64 IQ: 96, IPC: 2.4945
TH3 ROB: 4 LSQ: 2 IQ: 0, IPC: 0.0022
EPOCH ENDS
EPOCH STARTS
TH0 ROB: 4 LSQ: 1 IQ: 0 IPC: 0.0019
TH1 ROB: 4 LSQ: 0 IQ: 0, IPC: 0.0018
TH2 ROB: 106 LSQ: 64 IQ: 96, IPC: 2.4945
TH3 ROB: 4 LSQ: 2 IQ: 0, IPC: 0.0022
EPOCH ENDS
EPOCH STARTS
TH0 ROB: 4 LSQ: 1 IQ: 0 IPC: 0.0019
TH1 ROB: 4 LSQ: 0 IQ: 0, IPC: 0.0017
TH2 ROB: 106 LSQ: 64 IQ: 96, IPC: 2.4945
TH3 ROB: 4 LSQ: 2 IQ: 0, IPC: 0.0022
EPOCH ENDS
EPOCH STARTS
TH0 ROB: 4 LSQ: 1 IQ: 0 IPC: 0.0019
TH1 ROB: 4 LSQ: 0 IQ: 0, IPC: 0.0017
TH2 ROB: 106 LSQ: 64 IQ: 96, IPC: 2.4946
TH3 ROB: 4 LSQ: 2 IQ: 0, IPC: 0.0022
EPOCH ENDS
EPOCH STARTS
TH0 ROB: 4 LSQ: 1 IQ: 0 IPC: 0.0019
TH1 ROB: 4 LSQ: 0 IQ: 0, IPC: 0.0017
TH2 ROB: 106 LSQ: 64 IQ: 96, IPC: 2.4946
TH3 ROB: 4 LSQ: 2 IQ: 0, IPC: 0.0022
EPOCH ENDS
EPOCH STARTS
TH0 ROB: 4 LSQ: 1 IQ: 0 IPC: 0.0019
TH1 ROB: 4 LSQ: 0 IQ: 0, IPC: 0.0017
TH2 ROB: 106 LSQ: 64 IQ: 96, IPC: 2.4946
TH3 ROB: 4 LSQ: 2 IQ: 0, IPC: 0.0022
EPOCH ENDS
EPOCH STARTS
TH0 ROB: 4 LSQ: 1 IQ: 0 IPC: 0.0019
TH1 ROB: 4 LSQ: 0 IQ: 0, IPC: 0.0017
TH2 ROB: 106 LSQ: 64 IQ: 96, IPC: 2.4946
TH3 ROB: 4 LSQ: 2 IQ: 0, IPC: 0.0022
EPOCH ENDS
EPOCH STARTS
TH0 ROB: 4 LSQ: 1 IQ: 0 IPC: 0.0019
TH1 ROB: 4 LSQ: 0 IQ: 0, IPC: 0.0017
TH2 ROB: 106 LSQ: 64 IQ: 96, IPC: 2.4946
TH3 ROB: 4 LSQ: 2 IQ: 0, IPC: 0.0022
EPOCH ENDS
EPOCH STARTS
TH0 ROB: 4 LSQ: 1 IQ: 0 IPC: 0.0019
TH1 ROB: 4 LSQ: 0 IQ: 0, IPC: 0.0017
TH2 ROB: 106 LSQ: 64 IQ: 96, IPC: 2.4947
TH3 ROB: 4 LSQ: 2 IQ: 0, IPC: 0.0022
EPOCH ENDS
EPOCH STARTS
TH0 ROB: 4 LSQ: 1 IQ: 0 IPC: 0.0019
TH1 ROB: 4 LSQ: 0 IQ: 0, IPC: 0.0017
TH2 ROB: 106 LSQ: 64 IQ: 96, IPC: 2.4947
TH3 ROB: 4 LSQ: 2 IQ: 0, IPC: 0.0022
EPOCH ENDS
EPOCH STARTS
TH0 ROB: 4 LSQ: 1 IQ: 0 IPC: 0.0019
TH1 ROB: 4 LSQ: 0 IQ: 0, IPC: 0.0017
TH2 ROB: 106 LSQ: 64 IQ: 96, IPC: 2.4947
TH3 ROB: 4 LSQ: 2 IQ: 0, IPC: 0.0022
EPOCH ENDS
EPOCH STARTS
TH0 ROB: 4 LSQ: 1 IQ: 0 IPC: 0.0019
TH1 ROB: 4 LSQ: 0 IQ: 0, IPC: 0.0017
TH2 ROB: 106 LSQ: 64 IQ: 96, IPC: 2.4947
TH3 ROB: 4 LSQ: 2 IQ: 0, IPC: 0.0022
EPOCH ENDS
EPOCH STARTS
TH0 ROB: 4 LSQ: 1 IQ: 0 IPC: 0.0019
TH1 ROB: 4 LSQ: 0 IQ: 0, IPC: 0.0017
TH2 ROB: 106 LSQ: 64 IQ: 96, IPC: 2.4947
TH3 ROB: 4 LSQ: 2 IQ: 0, IPC: 0.0022
EPOCH ENDS
EPOCH STARTS
TH0 ROB: 4 LSQ: 1 IQ: 0 IPC: 0.0019
TH1 ROB: 4 LSQ: 0 IQ: 0, IPC: 0.0017
TH2 ROB: 106 LSQ: 64 IQ: 96, IPC: 2.4948
TH3 ROB: 4 LSQ: 2 IQ: 0, IPC: 0.0021
EPOCH ENDS
EPOCH STARTS
TH0 ROB: 4 LSQ: 1 IQ: 0 IPC: 0.0019
TH1 ROB: 4 LSQ: 0 IQ: 0, IPC: 0.0017
TH2 ROB: 106 LSQ: 64 IQ: 96, IPC: 2.4948
TH3 ROB: 4 LSQ: 2 IQ: 0, IPC: 0.0021
EPOCH ENDS
EPOCH STARTS
TH0 ROB: 4 LSQ: 1 IQ: 0 IPC: 0.0018
TH1 ROB: 4 LSQ: 0 IQ: 0, IPC: 0.0017
TH2 ROB: 106 LSQ: 64 IQ: 96, IPC: 2.4948
TH3 ROB: 4 LSQ: 2 IQ: 0, IPC: 0.0021
EPOCH ENDS
EPOCH STARTS
TH0 ROB: 4 LSQ: 1 IQ: 0 IPC: 0.0018
TH1 ROB: 4 LSQ: 0 IQ: 0, IPC: 0.0017
TH2 ROB: 106 LSQ: 64 IQ: 96, IPC: 2.4948
TH3 ROB: 4 LSQ: 2 IQ: 0, IPC: 0.0021
EPOCH ENDS
EPOCH STARTS
TH0 ROB: 4 LSQ: 1 IQ: 0 IPC: 0.0018
TH1 ROB: 4 LSQ: 0 IQ: 0, IPC: 0.0017
TH2 ROB: 106 LSQ: 64 IQ: 96, IPC: 2.4948
TH3 ROB: 4 LSQ: 2 IQ: 0, IPC: 0.0021
EPOCH ENDS
EPOCH STARTS
TH0 ROB: 4 LSQ: 1 IQ: 0 IPC: 0.0018
TH1 ROB: 4 LSQ: 0 IQ: 0, IPC: 0.0016
TH2 ROB: 106 LSQ: 64 IQ: 96, IPC: 2.4948
TH3 ROB: 4 LSQ: 2 IQ: 0, IPC: 0.0021
EPOCH ENDS
EPOCH STARTS
TH0 ROB: 4 LSQ: 1 IQ: 0 IPC: 0.0018
TH1 ROB: 4 LSQ: 0 IQ: 0, IPC: 0.0016
TH2 ROB: 106 LSQ: 64 IQ: 96, IPC: 2.4949
TH3 ROB: 4 LSQ: 2 IQ: 0, IPC: 0.0021
EPOCH ENDS
EPOCH STARTS
TH0 ROB: 4 LSQ: 1 IQ: 0 IPC: 0.0018
TH1 ROB: 4 LSQ: 0 IQ: 0, IPC: 0.0016
TH2 ROB: 106 LSQ: 64 IQ: 96, IPC: 2.4949
TH3 ROB: 4 LSQ: 2 IQ: 0, IPC: 0.0021
EPOCH ENDS
EPOCH STARTS
TH0 ROB: 4 LSQ: 1 IQ: 0 IPC: 0.0018
TH1 ROB: 4 LSQ: 0 IQ: 0, IPC: 0.0016
TH2 ROB: 106 LSQ: 64 IQ: 96, IPC: 2.4949
TH3 ROB: 4 LSQ: 2 IQ: 0, IPC: 0.0021
EPOCH ENDS
EPOCH STARTS
TH0 ROB: 4 LSQ: 1 IQ: 0 IPC: 0.0018
TH1 ROB: 4 LSQ: 0 IQ: 0, IPC: 0.0016
TH2 ROB: 106 LSQ: 64 IQ: 96, IPC: 2.4949
TH3 ROB: 4 LSQ: 2 IQ: 0, IPC: 0.0021
EPOCH ENDS
EPOCH STARTS
TH0 ROB: 4 LSQ: 1 IQ: 0 IPC: 0.0018
TH1 ROB: 4 LSQ: 0 IQ: 0, IPC: 0.0016
TH2 ROB: 106 LSQ: 64 IQ: 96, IPC: 2.4949
TH3 ROB: 4 LSQ: 2 IQ: 0, IPC: 0.0021
EPOCH ENDS
EPOCH STARTS
TH0 ROB: 4 LSQ: 1 IQ: 0 IPC: 0.0018
TH1 ROB: 4 LSQ: 0 IQ: 0, IPC: 0.0016
TH2 ROB: 106 LSQ: 64 IQ: 96, IPC: 2.4949
TH3 ROB: 4 LSQ: 2 IQ: 0, IPC: 0.0021
EPOCH ENDS
EPOCH STARTS
TH0 ROB: 4 LSQ: 1 IQ: 0 IPC: 0.0018
TH1 ROB: 4 LSQ: 0 IQ: 0, IPC: 0.0016
TH2 ROB: 106 LSQ: 64 IQ: 96, IPC: 2.4950
TH3 ROB: 4 LSQ: 2 IQ: 0, IPC: 0.0021
EPOCH ENDS
EPOCH STARTS
TH0 ROB: 4 LSQ: 1 IQ: 0 IPC: 0.0018
TH1 ROB: 4 LSQ: 0 IQ: 0, IPC: 0.0016
TH2 ROB: 106 LSQ: 64 IQ: 96, IPC: 2.4950
TH3 ROB: 4 LSQ: 2 IQ: 0, IPC: 0.0021
EPOCH ENDS
EPOCH STARTS
TH0 ROB: 4 LSQ: 1 IQ: 0 IPC: 0.0018
TH1 ROB: 4 LSQ: 0 IQ: 0, IPC: 0.0016
TH2 ROB: 106 LSQ: 64 IQ: 96, IPC: 2.4950
TH3 ROB: 4 LSQ: 2 IQ: 0, IPC: 0.0020
EPOCH ENDS
EPOCH STARTS
TH0 ROB: 4 LSQ: 1 IQ: 0 IPC: 0.0018
TH1 ROB: 4 LSQ: 0 IQ: 0, IPC: 0.0016
TH2 ROB: 106 LSQ: 64 IQ: 96, IPC: 2.4950
TH3 ROB: 4 LSQ: 2 IQ: 0, IPC: 0.0020
EPOCH ENDS
EPOCH STARTS
TH0 ROB: 4 LSQ: 1 IQ: 0 IPC: 0.0018
TH1 ROB: 4 LSQ: 0 IQ: 0, IPC: 0.0016
TH2 ROB: 106 LSQ: 64 IQ: 96, IPC: 2.4950
TH3 ROB: 4 LSQ: 2 IQ: 0, IPC: 0.0020
EPOCH ENDS
EPOCH STARTS
TH0 ROB: 4 LSQ: 1 IQ: 0 IPC: 0.0018
TH1 ROB: 4 LSQ: 0 IQ: 0, IPC: 0.0016
TH2 ROB: 106 LSQ: 64 IQ: 96, IPC: 2.4950
TH3 ROB: 4 LSQ: 2 IQ: 0, IPC: 0.0020
EPOCH ENDS
EPOCH STARTS
TH0 ROB: 4 LSQ: 1 IQ: 0 IPC: 0.0017
TH1 ROB: 4 LSQ: 0 IQ: 0, IPC: 0.0016
TH2 ROB: 106 LSQ: 64 IQ: 96, IPC: 2.4951
TH3 ROB: 4 LSQ: 2 IQ: 0, IPC: 0.0020
EPOCH ENDS
EPOCH STARTS
TH0 ROB: 4 LSQ: 1 IQ: 0 IPC: 0.0017
TH1 ROB: 4 LSQ: 0 IQ: 0, IPC: 0.0016
TH2 ROB: 106 LSQ: 64 IQ: 96, IPC: 2.4951
TH3 ROB: 4 LSQ: 2 IQ: 0, IPC: 0.0020
EPOCH ENDS
EPOCH STARTS
TH0 ROB: 4 LSQ: 1 IQ: 0 IPC: 0.0017
TH1 ROB: 4 LSQ: 0 IQ: 0, IPC: 0.0016
TH2 ROB: 106 LSQ: 64 IQ: 96, IPC: 2.4951
TH3 ROB: 4 LSQ: 2 IQ: 0, IPC: 0.0020
EPOCH ENDS
EPOCH STARTS
TH0 ROB: 4 LSQ: 1 IQ: 0 IPC: 0.0017
TH1 ROB: 4 LSQ: 0 IQ: 0, IPC: 0.0016
TH2 ROB: 106 LSQ: 64 IQ: 96, IPC: 2.4951
TH3 ROB: 4 LSQ: 2 IQ: 0, IPC: 0.0020
EPOCH ENDS
EPOCH STARTS
TH0 ROB: 4 LSQ: 1 IQ: 0 IPC: 0.0017
TH1 ROB: 4 LSQ: 0 IQ: 0, IPC: 0.0016
TH2 ROB: 106 LSQ: 64 IQ: 96, IPC: 2.4951
TH3 ROB: 4 LSQ: 2 IQ: 0, IPC: 0.0020
EPOCH ENDS
EPOCH STARTS
TH0 ROB: 4 LSQ: 1 IQ: 0 IPC: 0.0017
TH1 ROB: 4 LSQ: 0 IQ: 0, IPC: 0.0016
TH2 ROB: 106 LSQ: 64 IQ: 96, IPC: 2.4951
TH3 ROB: 4 LSQ: 2 IQ: 0, IPC: 0.0020
EPOCH ENDS
EPOCH STARTS
TH0 ROB: 4 LSQ: 1 IQ: 0 IPC: 0.0017
TH1 ROB: 4 LSQ: 0 IQ: 0, IPC: 0.0015
TH2 ROB: 106 LSQ: 64 IQ: 96, IPC: 2.4952
TH3 ROB: 4 LSQ: 2 IQ: 0, IPC: 0.0020
EPOCH ENDS
EPOCH STARTS
TH0 ROB: 4 LSQ: 1 IQ: 0 IPC: 0.0017
TH1 ROB: 4 LSQ: 0 IQ: 0, IPC: 0.0015
TH2 ROB: 106 LSQ: 64 IQ: 96, IPC: 2.4952
TH3 ROB: 4 LSQ: 2 IQ: 0, IPC: 0.0020
EPOCH ENDS
EPOCH STARTS
TH0 ROB: 4 LSQ: 1 IQ: 0 IPC: 0.0017
TH1 ROB: 4 LSQ: 0 IQ: 0, IPC: 0.0015
TH2 ROB: 106 LSQ: 64 IQ: 96, IPC: 2.4952
TH3 ROB: 4 LSQ: 2 IQ: 0, IPC: 0.0020
EPOCH ENDS
EPOCH STARTS
TH0 ROB: 4 LSQ: 1 IQ: 0 IPC: 0.0017
TH1 ROB: 4 LSQ: 0 IQ: 0, IPC: 0.0015
TH2 ROB: 106 LSQ: 64 IQ: 96, IPC: 2.4952
TH3 ROB: 4 LSQ: 2 IQ: 0, IPC: 0.0020
EPOCH ENDS
EPOCH STARTS
TH0 ROB: 4 LSQ: 1 IQ: 0 IPC: 0.0017
TH1 ROB: 4 LSQ: 0 IQ: 0, IPC: 0.0015
TH2 ROB: 106 LSQ: 64 IQ: 96, IPC: 2.4952
TH3 ROB: 4 LSQ: 2 IQ: 0, IPC: 0.0020
EPOCH ENDS
EPOCH STARTS
TH0 ROB: 4 LSQ: 1 IQ: 0 IPC: 0.0017
TH1 ROB: 4 LSQ: 0 IQ: 0, IPC: 0.0015
TH2 ROB: 106 LSQ: 64 IQ: 96, IPC: 2.4952
TH3 ROB: 4 LSQ: 2 IQ: 0, IPC: 0.0019
EPOCH ENDS
EPOCH STARTS
TH0 ROB: 4 LSQ: 1 IQ: 0 IPC: 0.0017
TH1 ROB: 4 LSQ: 0 IQ: 0, IPC: 0.0015
TH2 ROB: 106 LSQ: 64 IQ: 96, IPC: 2.4953
TH3 ROB: 4 LSQ: 2 IQ: 0, IPC: 0.0019
EPOCH ENDS
EPOCH STARTS
TH0 ROB: 4 LSQ: 1 IQ: 0 IPC: 0.0017
TH1 ROB: 4 LSQ: 0 IQ: 0, IPC: 0.0015
TH2 ROB: 106 LSQ: 64 IQ: 96, IPC: 2.4953
TH3 ROB: 4 LSQ: 2 IQ: 0, IPC: 0.0019
EPOCH ENDS
EPOCH STARTS
TH0 ROB: 4 LSQ: 1 IQ: 0 IPC: 0.0017
TH1 ROB: 4 LSQ: 0 IQ: 0, IPC: 0.0015
TH2 ROB: 106 LSQ: 64 IQ: 96, IPC: 2.4953
TH3 ROB: 4 LSQ: 2 IQ: 0, IPC: 0.0019
EPOCH ENDS
EPOCH STARTS
TH0 ROB: 4 LSQ: 1 IQ: 0 IPC: 0.0017
TH1 ROB: 4 LSQ: 0 IQ: 0, IPC: 0.0015
TH2 ROB: 106 LSQ: 64 IQ: 96, IPC: 2.4953
TH3 ROB: 4 LSQ: 2 IQ: 0, IPC: 0.0019
EPOCH ENDS
EPOCH STARTS
TH0 ROB: 4 LSQ: 1 IQ: 0 IPC: 0.0017
TH1 ROB: 4 LSQ: 0 IQ: 0, IPC: 0.0015
TH2 ROB: 106 LSQ: 64 IQ: 96, IPC: 2.4953
TH3 ROB: 4 LSQ: 2 IQ: 0, IPC: 0.0019
EPOCH ENDS
EPOCH STARTS
TH0 ROB: 4 LSQ: 1 IQ: 0 IPC: 0.0017
TH1 ROB: 4 LSQ: 0 IQ: 0, IPC: 0.0015
TH2 ROB: 106 LSQ: 64 IQ: 96, IPC: 2.4953
TH3 ROB: 4 LSQ: 2 IQ: 0, IPC: 0.0019
EPOCH ENDS
EPOCH STARTS
TH0 ROB: 4 LSQ: 1 IQ: 0 IPC: 0.0017
TH1 ROB: 4 LSQ: 0 IQ: 0, IPC: 0.0015
TH2 ROB: 106 LSQ: 64 IQ: 96, IPC: 2.4953
TH3 ROB: 4 LSQ: 2 IQ: 0, IPC: 0.0019
EPOCH ENDS
EPOCH STARTS
TH0 ROB: 4 LSQ: 1 IQ: 0 IPC: 0.0016
TH1 ROB: 4 LSQ: 0 IQ: 0, IPC: 0.0015
TH2 ROB: 106 LSQ: 64 IQ: 96, IPC: 2.4954
TH3 ROB: 4 LSQ: 2 IQ: 0, IPC: 0.0019
EPOCH ENDS
EPOCH STARTS
TH0 ROB: 4 LSQ: 1 IQ: 0 IPC: 0.0016
TH1 ROB: 4 LSQ: 0 IQ: 0, IPC: 0.0015
TH2 ROB: 106 LSQ: 64 IQ: 96, IPC: 2.4954
TH3 ROB: 4 LSQ: 2 IQ: 0, IPC: 0.0019
EPOCH ENDS
EPOCH STARTS
TH0 ROB: 4 LSQ: 1 IQ: 0 IPC: 0.0016
TH1 ROB: 4 LSQ: 0 IQ: 0, IPC: 0.0015
TH2 ROB: 106 LSQ: 64 IQ: 96, IPC: 2.4954
TH3 ROB: 4 LSQ: 2 IQ: 0, IPC: 0.0019
EPOCH ENDS
EPOCH STARTS
TH0 ROB: 4 LSQ: 1 IQ: 0 IPC: 0.0016
TH1 ROB: 4 LSQ: 0 IQ: 0, IPC: 0.0015
TH2 ROB: 106 LSQ: 64 IQ: 96, IPC: 2.4954
TH3 ROB: 4 LSQ: 2 IQ: 0, IPC: 0.0019
EPOCH ENDS
EPOCH STARTS
TH0 ROB: 4 LSQ: 1 IQ: 0 IPC: 0.0016
TH1 ROB: 4 LSQ: 0 IQ: 0, IPC: 0.0015
TH2 ROB: 106 LSQ: 64 IQ: 96, IPC: 2.4954
TH3 ROB: 4 LSQ: 2 IQ: 0, IPC: 0.0019
EPOCH ENDS
EPOCH STARTS
TH0 ROB: 4 LSQ: 1 IQ: 0 IPC: 0.0016
TH1 ROB: 4 LSQ: 0 IQ: 0, IPC: 0.0015
TH2 ROB: 106 LSQ: 64 IQ: 96, IPC: 2.4954
TH3 ROB: 4 LSQ: 2 IQ: 0, IPC: 0.0019
EPOCH ENDS
EPOCH STARTS
TH0 ROB: 4 LSQ: 1 IQ: 0 IPC: 0.0016
TH1 ROB: 4 LSQ: 0 IQ: 0, IPC: 0.0015
TH2 ROB: 106 LSQ: 64 IQ: 96, IPC: 2.4954
TH3 ROB: 4 LSQ: 2 IQ: 0, IPC: 0.0019
EPOCH ENDS
EPOCH STARTS
TH0 ROB: 4 LSQ: 1 IQ: 0 IPC: 0.0016
TH1 ROB: 4 LSQ: 0 IQ: 0, IPC: 0.0015
TH2 ROB: 106 LSQ: 64 IQ: 96, IPC: 2.4955
TH3 ROB: 4 LSQ: 2 IQ: 0, IPC: 0.0019
EPOCH ENDS
EPOCH STARTS
TH0 ROB: 4 LSQ: 1 IQ: 0 IPC: 0.0016
TH1 ROB: 4 LSQ: 0 IQ: 0, IPC: 0.0014
TH2 ROB: 106 LSQ: 64 IQ: 96, IPC: 2.4955
TH3 ROB: 4 LSQ: 2 IQ: 0, IPC: 0.0019
EPOCH ENDS
EPOCH STARTS
TH0 ROB: 4 LSQ: 1 IQ: 0 IPC: 0.0016
TH1 ROB: 4 LSQ: 0 IQ: 0, IPC: 0.0014
TH2 ROB: 106 LSQ: 64 IQ: 96, IPC: 2.4955
TH3 ROB: 4 LSQ: 2 IQ: 0, IPC: 0.0018
EPOCH ENDS
EPOCH STARTS
TH0 ROB: 4 LSQ: 1 IQ: 0 IPC: 0.0016
TH1 ROB: 4 LSQ: 0 IQ: 0, IPC: 0.0014
TH2 ROB: 106 LSQ: 64 IQ: 96, IPC: 2.4955
TH3 ROB: 4 LSQ: 2 IQ: 0, IPC: 0.0018
EPOCH ENDS
EPOCH STARTS
TH0 ROB: 4 LSQ: 1 IQ: 0 IPC: 0.0016
TH1 ROB: 4 LSQ: 0 IQ: 0, IPC: 0.0014
TH2 ROB: 106 LSQ: 64 IQ: 96, IPC: 2.4955
TH3 ROB: 4 LSQ: 2 IQ: 0, IPC: 0.0018
EPOCH ENDS
EPOCH STARTS
TH0 ROB: 4 LSQ: 1 IQ: 0 IPC: 0.0016
TH1 ROB: 4 LSQ: 0 IQ: 0, IPC: 0.0014
TH2 ROB: 106 LSQ: 64 IQ: 96, IPC: 2.4955
TH3 ROB: 4 LSQ: 2 IQ: 0, IPC: 0.0018
EPOCH ENDS
EPOCH STARTS
TH0 ROB: 4 LSQ: 1 IQ: 0 IPC: 0.0016
TH1 ROB: 4 LSQ: 0 IQ: 0, IPC: 0.0014
TH2 ROB: 106 LSQ: 64 IQ: 96, IPC: 2.4955
TH3 ROB: 4 LSQ: 2 IQ: 0, IPC: 0.0018
EPOCH ENDS
EPOCH STARTS
TH0 ROB: 4 LSQ: 1 IQ: 0 IPC: 0.0016
TH1 ROB: 4 LSQ: 0 IQ: 0, IPC: 0.0014
TH2 ROB: 106 LSQ: 64 IQ: 96, IPC: 2.4956
TH3 ROB: 4 LSQ: 2 IQ: 0, IPC: 0.0018
EPOCH ENDS
EPOCH STARTS
TH0 ROB: 4 LSQ: 1 IQ: 0 IPC: 0.0016
TH1 ROB: 4 LSQ: 0 IQ: 0, IPC: 0.0014
TH2 ROB: 106 LSQ: 64 IQ: 96, IPC: 2.4956
TH3 ROB: 4 LSQ: 2 IQ: 0, IPC: 0.0018
EPOCH ENDS
EPOCH STARTS
TH0 ROB: 4 LSQ: 1 IQ: 0 IPC: 0.0016
TH1 ROB: 4 LSQ: 0 IQ: 0, IPC: 0.0014
TH2 ROB: 106 LSQ: 64 IQ: 96, IPC: 2.4956
TH3 ROB: 4 LSQ: 2 IQ: 0, IPC: 0.0018
EPOCH ENDS
EPOCH STARTS
TH0 ROB: 4 LSQ: 1 IQ: 0 IPC: 0.0016
TH1 ROB: 4 LSQ: 0 IQ: 0, IPC: 0.0014
TH2 ROB: 106 LSQ: 64 IQ: 96, IPC: 2.4956
TH3 ROB: 4 LSQ: 2 IQ: 0, IPC: 0.0018
EPOCH ENDS
EPOCH STARTS
TH0 ROB: 4 LSQ: 1 IQ: 0 IPC: 0.0016
TH1 ROB: 4 LSQ: 0 IQ: 0, IPC: 0.0014
TH2 ROB: 106 LSQ: 64 IQ: 96, IPC: 2.4956
TH3 ROB: 4 LSQ: 2 IQ: 0, IPC: 0.0018
EPOCH ENDS
EPOCH STARTS
TH0 ROB: 4 LSQ: 1 IQ: 0 IPC: 0.0016
TH1 ROB: 4 LSQ: 0 IQ: 0, IPC: 0.0014
TH2 ROB: 106 LSQ: 64 IQ: 96, IPC: 2.4956
TH3 ROB: 4 LSQ: 2 IQ: 0, IPC: 0.0018
EPOCH ENDS
EPOCH STARTS
TH0 ROB: 4 LSQ: 1 IQ: 0 IPC: 0.0015
TH1 ROB: 4 LSQ: 0 IQ: 0, IPC: 0.0014
TH2 ROB: 106 LSQ: 64 IQ: 96, IPC: 2.4956
TH3 ROB: 4 LSQ: 2 IQ: 0, IPC: 0.0018
EPOCH ENDS
EPOCH STARTS
TH0 ROB: 4 LSQ: 1 IQ: 0 IPC: 0.0015
TH1 ROB: 4 LSQ: 0 IQ: 0, IPC: 0.0014
TH2 ROB: 106 LSQ: 64 IQ: 96, IPC: 2.4956
TH3 ROB: 4 LSQ: 2 IQ: 0, IPC: 0.0018
EPOCH ENDS
EPOCH STARTS
TH0 ROB: 4 LSQ: 1 IQ: 0 IPC: 0.0015
TH1 ROB: 4 LSQ: 0 IQ: 0, IPC: 0.0014
TH2 ROB: 106 LSQ: 64 IQ: 96, IPC: 2.4957
TH3 ROB: 4 LSQ: 2 IQ: 0, IPC: 0.0018
EPOCH ENDS
EPOCH STARTS
TH0 ROB: 4 LSQ: 1 IQ: 0 IPC: 0.0015
TH1 ROB: 4 LSQ: 0 IQ: 0, IPC: 0.0014
TH2 ROB: 106 LSQ: 64 IQ: 96, IPC: 2.4957
TH3 ROB: 4 LSQ: 2 IQ: 0, IPC: 0.0018
EPOCH ENDS
EPOCH STARTS
TH0 ROB: 4 LSQ: 1 IQ: 0 IPC: 0.0015
TH1 ROB: 4 LSQ: 0 IQ: 0, IPC: 0.0014
TH2 ROB: 106 LSQ: 64 IQ: 96, IPC: 2.4957
TH3 ROB: 4 LSQ: 2 IQ: 0, IPC: 0.0018
EPOCH ENDS
EPOCH STARTS
TH0 ROB: 4 LSQ: 1 IQ: 0 IPC: 0.0015
TH1 ROB: 4 LSQ: 0 IQ: 0, IPC: 0.0014
TH2 ROB: 106 LSQ: 64 IQ: 96, IPC: 2.4957
TH3 ROB: 4 LSQ: 2 IQ: 0, IPC: 0.0018
EPOCH ENDS
EPOCH STARTS
TH0 ROB: 4 LSQ: 1 IQ: 0 IPC: 0.0015
TH1 ROB: 4 LSQ: 0 IQ: 0, IPC: 0.0014
TH2 ROB: 106 LSQ: 64 IQ: 96, IPC: 2.4957
TH3 ROB: 4 LSQ: 2 IQ: 0, IPC: 0.0018
EPOCH ENDS
EPOCH STARTS
TH0 ROB: 4 LSQ: 1 IQ: 0 IPC: 0.0015
TH1 ROB: 4 LSQ: 0 IQ: 0, IPC: 0.0014
TH2 ROB: 106 LSQ: 64 IQ: 96, IPC: 2.4957
TH3 ROB: 4 LSQ: 2 IQ: 0, IPC: 0.0018
EPOCH ENDS
EPOCH STARTS
TH0 ROB: 4 LSQ: 1 IQ: 0 IPC: 0.0015
TH1 ROB: 4 LSQ: 0 IQ: 0, IPC: 0.0014
TH2 ROB: 106 LSQ: 64 IQ: 96, IPC: 2.4957
TH3 ROB: 4 LSQ: 2 IQ: 0, IPC: 0.0017
EPOCH ENDS
EPOCH STARTS
TH0 ROB: 4 LSQ: 1 IQ: 0 IPC: 0.0015
TH1 ROB: 4 LSQ: 0 IQ: 0, IPC: 0.0014
TH2 ROB: 106 LSQ: 64 IQ: 96, IPC: 2.4957
TH3 ROB: 4 LSQ: 2 IQ: 0, IPC: 0.0017
EPOCH ENDS
EPOCH STARTS
TH0 ROB: 4 LSQ: 1 IQ: 0 IPC: 0.0015
TH1 ROB: 4 LSQ: 0 IQ: 0, IPC: 0.0014
TH2 ROB: 106 LSQ: 64 IQ: 96, IPC: 2.4958
TH3 ROB: 4 LSQ: 2 IQ: 0, IPC: 0.0017
EPOCH ENDS
EPOCH STARTS
TH0 ROB: 4 LSQ: 1 IQ: 0 IPC: 0.0015
TH1 ROB: 4 LSQ: 0 IQ: 0, IPC: 0.0014
TH2 ROB: 106 LSQ: 64 IQ: 96, IPC: 2.4958
TH3 ROB: 4 LSQ: 2 IQ: 0, IPC: 0.0017
EPOCH ENDS
EPOCH STARTS
TH0 ROB: 4 LSQ: 1 IQ: 0 IPC: 0.0015
TH1 ROB: 4 LSQ: 0 IQ: 0, IPC: 0.0013
TH2 ROB: 106 LSQ: 64 IQ: 96, IPC: 2.4958
TH3 ROB: 4 LSQ: 2 IQ: 0, IPC: 0.0017
EPOCH ENDS
EPOCH STARTS
TH0 ROB: 4 LSQ: 1 IQ: 0 IPC: 0.0015
TH1 ROB: 4 LSQ: 0 IQ: 0, IPC: 0.0013
TH2 ROB: 106 LSQ: 64 IQ: 96, IPC: 2.4958
TH3 ROB: 4 LSQ: 2 IQ: 0, IPC: 0.0017
EPOCH ENDS
EPOCH STARTS
TH0 ROB: 4 LSQ: 1 IQ: 0 IPC: 0.0015
TH1 ROB: 4 LSQ: 0 IQ: 0, IPC: 0.0013
TH2 ROB: 106 LSQ: 64 IQ: 96, IPC: 2.4958
TH3 ROB: 4 LSQ: 2 IQ: 0, IPC: 0.0017
EPOCH ENDS
EPOCH STARTS
TH0 ROB: 4 LSQ: 1 IQ: 0 IPC: 0.0015
TH1 ROB: 4 LSQ: 0 IQ: 0, IPC: 0.0013
TH2 ROB: 106 LSQ: 64 IQ: 96, IPC: 2.4958
TH3 ROB: 4 LSQ: 2 IQ: 0, IPC: 0.0017
EPOCH ENDS
EPOCH STARTS
TH0 ROB: 4 LSQ: 1 IQ: 0 IPC: 0.0015
TH1 ROB: 4 LSQ: 0 IQ: 0, IPC: 0.0013
TH2 ROB: 106 LSQ: 64 IQ: 96, IPC: 2.4958
TH3 ROB: 4 LSQ: 2 IQ: 0, IPC: 0.0017
EPOCH ENDS
EPOCH STARTS
TH0 ROB: 4 LSQ: 1 IQ: 0 IPC: 0.0015
TH1 ROB: 4 LSQ: 0 IQ: 0, IPC: 0.0013
TH2 ROB: 106 LSQ: 64 IQ: 96, IPC: 2.4958
TH3 ROB: 4 LSQ: 2 IQ: 0, IPC: 0.0017
EPOCH ENDS
EPOCH STARTS
TH0 ROB: 4 LSQ: 1 IQ: 0 IPC: 0.0015
TH1 ROB: 4 LSQ: 0 IQ: 0, IPC: 0.0013
TH2 ROB: 106 LSQ: 64 IQ: 96, IPC: 2.4958
TH3 ROB: 4 LSQ: 2 IQ: 0, IPC: 0.0017
EPOCH ENDS
EPOCH STARTS
TH0 ROB: 4 LSQ: 1 IQ: 0 IPC: 0.0015
TH1 ROB: 4 LSQ: 0 IQ: 0, IPC: 0.0013
TH2 ROB: 106 LSQ: 64 IQ: 96, IPC: 2.4959
TH3 ROB: 4 LSQ: 2 IQ: 0, IPC: 0.0017
EPOCH ENDS
EPOCH STARTS
TH0 ROB: 4 LSQ: 1 IQ: 0 IPC: 0.0015
TH1 ROB: 4 LSQ: 0 IQ: 0, IPC: 0.0013
TH2 ROB: 106 LSQ: 64 IQ: 96, IPC: 2.4959
TH3 ROB: 4 LSQ: 2 IQ: 0, IPC: 0.0017
EPOCH ENDS
EPOCH STARTS
TH0 ROB: 4 LSQ: 1 IQ: 0 IPC: 0.0015
TH1 ROB: 4 LSQ: 0 IQ: 0, IPC: 0.0013
TH2 ROB: 106 LSQ: 64 IQ: 96, IPC: 2.4959
TH3 ROB: 4 LSQ: 2 IQ: 0, IPC: 0.0017
EPOCH ENDS
EPOCH STARTS
TH0 ROB: 4 LSQ: 1 IQ: 0 IPC: 0.0015
TH1 ROB: 4 LSQ: 0 IQ: 0, IPC: 0.0013
TH2 ROB: 106 LSQ: 64 IQ: 96, IPC: 2.4959
TH3 ROB: 4 LSQ: 2 IQ: 0, IPC: 0.0017
EPOCH ENDS
EPOCH STARTS
TH0 ROB: 4 LSQ: 1 IQ: 0 IPC: 0.0015
TH1 ROB: 4 LSQ: 0 IQ: 0, IPC: 0.0013
TH2 ROB: 106 LSQ: 64 IQ: 96, IPC: 2.4959
TH3 ROB: 4 LSQ: 2 IQ: 0, IPC: 0.0017
EPOCH ENDS
EPOCH STARTS
TH0 ROB: 4 LSQ: 1 IQ: 0 IPC: 0.0014
TH1 ROB: 4 LSQ: 0 IQ: 0, IPC: 0.0013
TH2 ROB: 106 LSQ: 64 IQ: 96, IPC: 2.4959
TH3 ROB: 4 LSQ: 2 IQ: 0, IPC: 0.0017
EPOCH ENDS
EPOCH STARTS
TH0 ROB: 4 LSQ: 1 IQ: 0 IPC: 0.0014
TH1 ROB: 4 LSQ: 0 IQ: 0, IPC: 0.0013
TH2 ROB: 106 LSQ: 64 IQ: 96, IPC: 2.4959
TH3 ROB: 4 LSQ: 2 IQ: 0, IPC: 0.0017
EPOCH ENDS
EPOCH STARTS
TH0 ROB: 4 LSQ: 1 IQ: 0 IPC: 0.0014
TH1 ROB: 4 LSQ: 0 IQ: 0, IPC: 0.0013
TH2 ROB: 106 LSQ: 64 IQ: 96, IPC: 2.4959
TH3 ROB: 4 LSQ: 2 IQ: 0, IPC: 0.0017
EPOCH ENDS
EPOCH STARTS
TH0 ROB: 4 LSQ: 1 IQ: 0 IPC: 0.0014
TH1 ROB: 4 LSQ: 0 IQ: 0, IPC: 0.0013
TH2 ROB: 106 LSQ: 64 IQ: 96, IPC: 2.4959
TH3 ROB: 4 LSQ: 2 IQ: 0, IPC: 0.0017
EPOCH ENDS
EPOCH STARTS
TH0 ROB: 4 LSQ: 1 IQ: 0 IPC: 0.0014
TH1 ROB: 4 LSQ: 0 IQ: 0, IPC: 0.0013
TH2 ROB: 106 LSQ: 64 IQ: 96, IPC: 2.4960
TH3 ROB: 4 LSQ: 2 IQ: 0, IPC: 0.0017
EPOCH ENDS
EPOCH STARTS
TH0 ROB: 4 LSQ: 1 IQ: 0 IPC: 0.0014
TH1 ROB: 4 LSQ: 0 IQ: 0, IPC: 0.0013
TH2 ROB: 106 LSQ: 64 IQ: 96, IPC: 2.4960
TH3 ROB: 4 LSQ: 2 IQ: 0, IPC: 0.0016
EPOCH ENDS
EPOCH STARTS
TH0 ROB: 4 LSQ: 1 IQ: 0 IPC: 0.0014
TH1 ROB: 4 LSQ: 0 IQ: 0, IPC: 0.0013
TH2 ROB: 106 LSQ: 64 IQ: 96, IPC: 2.4960
TH3 ROB: 4 LSQ: 2 IQ: 0, IPC: 0.0016
EPOCH ENDS
EPOCH STARTS
TH0 ROB: 4 LSQ: 1 IQ: 0 IPC: 0.0014
TH1 ROB: 4 LSQ: 0 IQ: 0, IPC: 0.0013
TH2 ROB: 106 LSQ: 64 IQ: 96, IPC: 2.4960
TH3 ROB: 4 LSQ: 2 IQ: 0, IPC: 0.0016
EPOCH ENDS
EPOCH STARTS
TH0 ROB: 4 LSQ: 1 IQ: 0 IPC: 0.0014
TH1 ROB: 4 LSQ: 0 IQ: 0, IPC: 0.0013
TH2 ROB: 106 LSQ: 64 IQ: 96, IPC: 2.4960
TH3 ROB: 4 LSQ: 2 IQ: 0, IPC: 0.0016
EPOCH ENDS
EPOCH STARTS
TH0 ROB: 4 LSQ: 1 IQ: 0 IPC: 0.0014
TH1 ROB: 4 LSQ: 0 IQ: 0, IPC: 0.0013
TH2 ROB: 106 LSQ: 64 IQ: 96, IPC: 2.4960
TH3 ROB: 4 LSQ: 2 IQ: 0, IPC: 0.0016
EPOCH ENDS
EPOCH STARTS
TH0 ROB: 4 LSQ: 1 IQ: 0 IPC: 0.0014
TH1 ROB: 4 LSQ: 0 IQ: 0, IPC: 0.0013
TH2 ROB: 106 LSQ: 64 IQ: 96, IPC: 2.4960
TH3 ROB: 4 LSQ: 2 IQ: 0, IPC: 0.0016
EPOCH ENDS
EPOCH STARTS
TH0 ROB: 4 LSQ: 1 IQ: 0 IPC: 0.0014
TH1 ROB: 4 LSQ: 0 IQ: 0, IPC: 0.0013
TH2 ROB: 106 LSQ: 64 IQ: 96, IPC: 2.4960
TH3 ROB: 4 LSQ: 2 IQ: 0, IPC: 0.0016
EPOCH ENDS
EPOCH STARTS
TH0 ROB: 4 LSQ: 1 IQ: 0 IPC: 0.0014
TH1 ROB: 4 LSQ: 0 IQ: 0, IPC: 0.0013
TH2 ROB: 106 LSQ: 64 IQ: 96, IPC: 2.4960
TH3 ROB: 4 LSQ: 2 IQ: 0, IPC: 0.0016
EPOCH ENDS
EPOCH STARTS
TH0 ROB: 4 LSQ: 1 IQ: 0 IPC: 0.0014
TH1 ROB: 4 LSQ: 0 IQ: 0, IPC: 0.0013
TH2 ROB: 106 LSQ: 64 IQ: 96, IPC: 2.4961
TH3 ROB: 4 LSQ: 2 IQ: 0, IPC: 0.0016
EPOCH ENDS
EPOCH STARTS
TH0 ROB: 4 LSQ: 1 IQ: 0 IPC: 0.0014
TH1 ROB: 4 LSQ: 0 IQ: 0, IPC: 0.0013
TH2 ROB: 106 LSQ: 64 IQ: 96, IPC: 2.4961
TH3 ROB: 4 LSQ: 2 IQ: 0, IPC: 0.0016
EPOCH ENDS
EPOCH STARTS
TH0 ROB: 4 LSQ: 1 IQ: 0 IPC: 0.0014
TH1 ROB: 4 LSQ: 0 IQ: 0, IPC: 0.0013
TH2 ROB: 106 LSQ: 64 IQ: 96, IPC: 2.4961
TH3 ROB: 4 LSQ: 2 IQ: 0, IPC: 0.0016
EPOCH ENDS
EPOCH STARTS
TH0 ROB: 4 LSQ: 1 IQ: 0 IPC: 0.0014
TH1 ROB: 4 LSQ: 0 IQ: 0, IPC: 0.0012
TH2 ROB: 106 LSQ: 64 IQ: 96, IPC: 2.4961
TH3 ROB: 4 LSQ: 2 IQ: 0, IPC: 0.0016
EPOCH ENDS
EPOCH STARTS
TH0 ROB: 4 LSQ: 1 IQ: 0 IPC: 0.0014
TH1 ROB: 4 LSQ: 0 IQ: 0, IPC: 0.0012
TH2 ROB: 106 LSQ: 64 IQ: 96, IPC: 2.4961
TH3 ROB: 4 LSQ: 2 IQ: 0, IPC: 0.0016
EPOCH ENDS
EPOCH STARTS
TH0 ROB: 4 LSQ: 1 IQ: 0 IPC: 0.0014
TH1 ROB: 4 LSQ: 0 IQ: 0, IPC: 0.0012
TH2 ROB: 106 LSQ: 64 IQ: 96, IPC: 2.4961
TH3 ROB: 4 LSQ: 2 IQ: 0, IPC: 0.0016
EPOCH ENDS
EPOCH STARTS
TH0 ROB: 4 LSQ: 1 IQ: 0 IPC: 0.0014
TH1 ROB: 4 LSQ: 0 IQ: 0, IPC: 0.0012
TH2 ROB: 106 LSQ: 64 IQ: 96, IPC: 2.4961
TH3 ROB: 4 LSQ: 2 IQ: 0, IPC: 0.0016
EPOCH ENDS
EPOCH STARTS
TH0 ROB: 4 LSQ: 1 IQ: 0 IPC: 0.0014
TH1 ROB: 4 LSQ: 0 IQ: 0, IPC: 0.0012
TH2 ROB: 106 LSQ: 64 IQ: 96, IPC: 2.4961
TH3 ROB: 4 LSQ: 2 IQ: 0, IPC: 0.0016
EPOCH ENDS
EPOCH STARTS
TH0 ROB: 4 LSQ: 1 IQ: 0 IPC: 0.0014
TH1 ROB: 4 LSQ: 0 IQ: 0, IPC: 0.0012
TH2 ROB: 106 LSQ: 64 IQ: 96, IPC: 2.4961
TH3 ROB: 4 LSQ: 2 IQ: 0, IPC: 0.0016
EPOCH ENDS
EPOCH STARTS
TH0 ROB: 4 LSQ: 1 IQ: 0 IPC: 0.0014
TH1 ROB: 4 LSQ: 0 IQ: 0, IPC: 0.0012
TH2 ROB: 106 LSQ: 64 IQ: 96, IPC: 2.4961
TH3 ROB: 4 LSQ: 2 IQ: 0, IPC: 0.0016
EPOCH ENDS
EPOCH STARTS
TH0 ROB: 4 LSQ: 1 IQ: 0 IPC: 0.0014
TH1 ROB: 4 LSQ: 0 IQ: 0, IPC: 0.0012
TH2 ROB: 106 LSQ: 64 IQ: 96, IPC: 2.4962
TH3 ROB: 4 LSQ: 2 IQ: 0, IPC: 0.0016
EPOCH ENDS
EPOCH STARTS
TH0 ROB: 4 LSQ: 1 IQ: 0 IPC: 0.0014
TH1 ROB: 4 LSQ: 0 IQ: 0, IPC: 0.0012
TH2 ROB: 106 LSQ: 64 IQ: 96, IPC: 2.4962
TH3 ROB: 4 LSQ: 2 IQ: 0, IPC: 0.0016
EPOCH ENDS
EPOCH STARTS
TH0 ROB: 4 LSQ: 1 IQ: 0 IPC: 0.0014
TH1 ROB: 4 LSQ: 0 IQ: 0, IPC: 0.0012
TH2 ROB: 106 LSQ: 64 IQ: 96, IPC: 2.4962
TH3 ROB: 4 LSQ: 2 IQ: 0, IPC: 0.0016
EPOCH ENDS
EPOCH STARTS
TH0 ROB: 4 LSQ: 1 IQ: 0 IPC: 0.0014
TH1 ROB: 4 LSQ: 0 IQ: 0, IPC: 0.0012
TH2 ROB: 106 LSQ: 64 IQ: 96, IPC: 2.4962
TH3 ROB: 4 LSQ: 2 IQ: 0, IPC: 0.0016
EPOCH ENDS
EPOCH STARTS
TH0 ROB: 4 LSQ: 1 IQ: 0 IPC: 0.0013
TH1 ROB: 4 LSQ: 0 IQ: 0, IPC: 0.0012
TH2 ROB: 106 LSQ: 64 IQ: 96, IPC: 2.4962
TH3 ROB: 4 LSQ: 2 IQ: 0, IPC: 0.0016
EPOCH ENDS
EPOCH STARTS
TH0 ROB: 4 LSQ: 1 IQ: 0 IPC: 0.0013
TH1 ROB: 4 LSQ: 0 IQ: 0, IPC: 0.0012
TH2 ROB: 106 LSQ: 64 IQ: 96, IPC: 2.4962
TH3 ROB: 4 LSQ: 2 IQ: 0, IPC: 0.0015
EPOCH ENDS
EPOCH STARTS
TH0 ROB: 4 LSQ: 1 IQ: 0 IPC: 0.0013
TH1 ROB: 4 LSQ: 0 IQ: 0, IPC: 0.0012
TH2 ROB: 106 LSQ: 64 IQ: 96, IPC: 2.4962
TH3 ROB: 4 LSQ: 2 IQ: 0, IPC: 0.0015
EPOCH ENDS
EPOCH STARTS
[...]
Thread_3_cpred_bimod.retstack_pops            0 # total number of address popped off of ret-addr stack
Thread_3_cpred_bimod.used_ras.PP            0 # total number of RAS predictions used
Thread_3_cpred_bimod.ras_hits.PP            0 # total number of RAS hits
Thread_3_cpred_bimod.ras_rate.PP <error: divide by zero> # RAS prediction rate (i.e., RAS hits/used RAS)
il1.accesses              625007728 # total number of accesses
il1.hits                  625007711 # total number of hits
il1.misses                       17 # total number of misses
il1.replacements                 17 # total number of replacements
il1.writebacks                    0 # total number of writebacks
il1.invalidations                 0 # total number of invalidations
il1.miss_rate                0.0000 # miss rate (i.e., misses/ref)
il1.repl_rate                0.0000 # replacement rate (i.e., repls/ref)
il1.wb_rate                  0.0000 # writeback rate (i.e., wrbks/ref)
il1.inv_rate                 0.0000 # invalidation rate (i.e., invs/ref)
dl1.accesses              250004442 # total number of accesses
dl1.hits                  250003357 # total number of hits
dl1.misses                     1085 # total number of misses
dl1.replacements               1085 # total number of replacements
dl1.writebacks                  993 # total number of writebacks
dl1.invalidations                 0 # total number of invalidations
dl1.miss_rate                0.0000 # miss rate (i.e., misses/ref)
dl1.repl_rate                0.0000 # replacement rate (i.e., repls/ref)
dl1.wb_rate                  0.0000 # writeback rate (i.e., wrbks/ref)
dl1.inv_rate                 0.0000 # invalidation rate (i.e., invs/ref)
ul2.accesses                   2095 # total number of accesses
ul2.hits                       1510 # total number of hits
ul2.misses                      585 # total number of misses
ul2.replacements                585 # total number of replacements
ul2.writebacks                  568 # total number of writebacks
ul2.invalidations                 0 # total number of invalidations
ul2.miss_rate                0.2792 # miss rate (i.e., misses/ref)
ul2.repl_rate                0.2792 # replacement rate (i.e., repls/ref)
ul2.wb_rate                  0.2711 # writeback rate (i.e., wrbks/ref)
ul2.inv_rate                 0.0000 # invalidation rate (i.e., invs/ref)
itlb.accesses             625007728 # total number of accesses
itlb.hits                 625007728 # total number of hits
itlb.misses                       0 # total number of misses
itlb.replacements                 0 # total number of replacements
itlb.writebacks                   0 # total number of writebacks
itlb.invalidations                0 # total number of invalidations
itlb.miss_rate               0.0000 # miss rate (i.e., misses/ref)
itlb.repl_rate               0.0000 # replacement rate (i.e., repls/ref)
itlb.wb_rate                 0.0000 # writeback rate (i.e., wrbks/ref)
itlb.inv_rate                0.0000 # invalidation rate (i.e., invs/ref)
dtlb.accesses             374995983 # total number of accesses
dtlb.hits                 374995064 # total number of hits
dtlb.misses                     919 # total number of misses
dtlb.replacements               919 # total number of replacements
dtlb.writebacks                   0 # total number of writebacks
dtlb.invalidations                0 # total number of invalidations
dtlb.miss_rate               0.0000 # miss rate (i.e., misses/ref)
dtlb.repl_rate               0.0000 # replacement rate (i.e., repls/ref)
dtlb.wb_rate                 0.0000 # writeback rate (i.e., wrbks/ref)
dtlb.inv_rate                0.0000 # invalidation rate (i.e., invs/ref)
sim_invalid_addrs                 0 # total non-speculative bogus addresses seen (debug var)
ld_text_base           0x0120000000 # program text (code) segment base
mem->ld_text_size            589824 # program text (code) size in bytes
mem->ld_data_base      0x0140000000 # program initialized data segment base
mem->ld_data_size            179872 # program init'ed `.data' and uninit'ed `.bss' size in bytes
mem->ld_stack_base     0x011ff9b000 # program stack segment base (highest address in stack)
mem->ld_stack_size            16384 # program initial stack size
mem->ld_prog_entry     0x0120000300 # program entry point (initial PC)
mem->ld_environ_base   0x011ff97000 # program environment base address address
mem->ld_target_big_endian            0 # target executable endian-ness, non-zero if big endian
mem_0.page_count                106 # total number of pages allocated
mem_0.page_mem                 848k # total size of memory pages allocated
mem_0.ptab_misses              2165 # total first level page table misses
mem_0.ptab_accesses        61035868 # total page table accesses
mem_0.ptab_miss_rate         0.0000 # first level page table miss rate
ld_text_base           0x0120000000 # program text (code) segment base
mem->ld_text_size            974848 # program text (code) size in bytes
mem->ld_data_base      0x0140000000 # program initialized data segment base
mem->ld_data_size             79184 # program init'ed `.data' and uninit'ed `.bss' size in bytes
mem->ld_stack_base     0x011ff9b000 # program stack segment base (highest address in stack)
mem->ld_stack_size            16384 # program initial stack size
mem->ld_prog_entry     0x0120015580 # program entry point (initial PC)
mem->ld_environ_base   0x011ff97000 # program environment base address address
mem->ld_target_big_endian            0 # target executable endian-ness, non-zero if big endian
mem_0.page_count                162 # total number of pages allocated
mem_0.page_mem                 848k # total size of memory pages allocated
mem_0.ptab_misses             33086 # total first level page table misses
mem_0.ptab_accesses        72061722 # total page table accesses
mem_0.ptab_miss_rate         0.0000 # first level page table miss rate
ld_text_base           0x0120000000 # program text (code) segment base
mem->ld_text_size           2285568 # program text (code) size in bytes
mem->ld_data_base      0x0140000000 # program initialized data segment base
mem->ld_data_size            152368 # program init'ed `.data' and uninit'ed `.bss' size in bytes
mem->ld_stack_base     0x011ff9b000 # program stack segment base (highest address in stack)
mem->ld_stack_size            16384 # program initial stack size
mem->ld_prog_entry     0x01200b9a00 # program entry point (initial PC)
mem->ld_environ_base   0x011ff97000 # program environment base address address
mem->ld_target_big_endian            0 # target executable endian-ness, non-zero if big endian
mem_0.page_count                300 # total number of pages allocated
mem_0.page_mem                 848k # total size of memory pages allocated
mem_0.ptab_misses               359 # total first level page table misses
mem_0.ptab_accesses      7370302330 # total page table accesses
mem_0.ptab_miss_rate         0.0000 # first level page table miss rate
ld_text_base           0x0120000000 # program text (code) segment base
mem->ld_text_size            507904 # program text (code) size in bytes
mem->ld_data_base      0x0140000000 # program initialized data segment base
mem->ld_data_size        1172354816 # program init'ed `.data' and uninit'ed `.bss' size in bytes
mem->ld_stack_base     0x011ff9b000 # program stack segment base (highest address in stack)
mem->ld_stack_size            16384 # program initial stack size
mem->ld_prog_entry     0x0120000300 # program entry point (initial PC)
mem->ld_environ_base   0x011ff97000 # program environment base address address
mem->ld_target_big_endian            0 # target executable endian-ness, non-zero if big endian
mem_0.page_count               2642 # total number of pages allocated
mem_0.page_mem                 848k # total size of memory pages allocated
mem_0.ptab_misses              2686 # total first level page table misses
mem_0.ptab_accesses       109603264 # total page table accesses
mem_0.ptab_miss_rate         0.0000 # first level page table miss rate
rename_power           170831330.8521 # total power usage of rename unit
bpred_power            1130781596.2667 # total power usage of bpred unit
window_power           3569047442.0555 # total power usage of instruction window
lsq_power              1992927240.4008 # total power usage of load/store queue
regfile_power          893118024.3201 # total power usage of arch. regfile
icache_power           1058450497.7872 # total power usage of icache
dcache_power           2311943843.8834 # total power usage of dcache
dcache2_power          1300033981.9295 # total power usage of dcache2
alu_power              4735293863.5147 # total power usage of alu
falu_power             3570261239.8660 # total power usage of falu
resultbus_power        2253231538.7770 # total power usage of resultbus
clock_power            7621587330.2502 # total power usage of clock
avg_rename_power             0.6833 # avg power usage of rename unit
avg_bpred_power              4.5231 # avg power usage of bpred unit
avg_window_power            14.2762 # avg power usage of instruction window
avg_lsq_power                7.9717 # avg power usage of lsq
avg_regfile_power            3.5725 # avg power usage of arch. regfile
avg_icache_power             4.2338 # avg power usage of icache
avg_dcache_power             9.2478 # avg power usage of dcache
avg_dcache2_power            5.2001 # avg power usage of dcache2
avg_alu_power               18.9412 # avg power usage of alu
avg_falu_power              14.2810 # avg power usage of falu
avg_resultbus_power          9.0129 # avg power usage of resultbus
avg_clock_power             30.4863 # avg power usage of clock
fetch_stage_power      2189232094.0540 # total power usage of fetch stage
dispatch_stage_power   170831330.8521 # total power usage of dispatch stage
issue_stage_power      16162477910.5610 # total power usage of issue stage
avg_fetch_power              8.7569 # average power of fetch unit per cycle
avg_dispatch_power           0.6833 # average power of dispatch unit per cycle
avg_issue_power             64.6499 # average power of issue unit per cycle
total_power            27037246690.0374 # total power per cycle
avg_total_power_cycle      108.1490 # average total power per cycle
avg_total_power_cycle_nofp_nod2      88.6678 # average total power per cycle
avg_total_power_insn        43.2591 # average total power per insn
avg_total_power_insn_nofp_nod2      35.4667 # average total power per insn
rename_power_cc1       170830629.7604 # total power usage of rename unit_cc1
bpred_power_cc1        565369881.3380 # total power usage of bpred unit_cc1
window_power_cc1       4091361185.7356 # total power usage of instruction window_cc1
lsq_power_cc1          1667211945.0389 # total power usage of lsq_cc1
regfile_power_cc1      860151628.9498 # total power usage of arch. regfile_cc1
icache_power_cc1       1058439828.6063 # total power usage of icache_cc1
dcache_power_cc1       1156032646.0064 # total power usage of dcache_cc1
dcache2_power_cc1         5727.9497 # total power usage of dcache2_cc1
alu_power_cc1          1165076017.5038 # total power usage of alu_cc1
resultbus_power_cc1    2253205253.8103 # total power usage of resultbus_cc1
clock_power_cc1        5464036645.2495 # total power usage of clock_cc1
avg_rename_power_cc1         0.6833 # avg power usage of rename unit_cc1
avg_bpred_power_cc1          2.2615 # avg power usage of bpred unit_cc1
avg_window_power_cc1        16.3654 # avg power usage of instruction window_cc1
avg_lsq_power_cc1            6.6688 # avg power usage of lsq_cc1
avg_regfile_power_cc1        3.4406 # avg power usage of arch. regfile_cc1
avg_icache_power_cc1         4.2338 # avg power usage of icache_cc1
avg_dcache_power_cc1         4.6241 # avg power usage of dcache_cc1
avg_dcache2_power_cc1        0.0000 # avg power usage of dcache2_cc1
avg_alu_power_cc1            4.6603 # avg power usage of alu_cc1
avg_resultbus_power_cc1       9.0128 # avg power usage of resultbus_cc1
avg_clock_power_cc1         21.8561 # avg power usage of clock_cc1
fetch_stage_power_cc1  1623809709.9443 # total power usage of fetch stage_cc1
dispatch_stage_power_cc1 170830629.7604 # total power usage of dispatch stage_cc1
issue_stage_power_cc1  10332892776.0447 # total power usage of issue stage_cc1
avg_fetch_power_cc1          6.4952 # average power of fetch unit per cycle_cc1
avg_dispatch_power_cc1       0.6833 # average power of dispatch unit per cycle_cc1
avg_issue_power_cc1         41.3316 # average power of issue unit per cycle_cc1
total_power_cycle_cc1  18451721389.9487 # total power per cycle_cc1
avg_total_power_cycle_cc1      73.8069 # average total power per cycle_cc1
avg_total_power_insn_cc1      29.5224 # average total power per insn_cc1
rename_power_cc2       106770753.6836 # total power usage of rename unit_cc2
bpred_power_cc2        282686037.5272 # total power usage of bpred unit_cc2
window_power_cc2       4017132028.1941 # total power usage of instruction window_cc2
lsq_power_cc2          833614394.6282 # total power usage of lsq_cc2
regfile_power_cc2      143361337.6507 # total power usage of arch. regfile_cc2
icache_power_cc2       1058439828.6063 # total power usage of icache_cc2
dcache_power_cc2       1155992464.4226 # total power usage of dcache_cc2
dcache2_power_cc2         5447.1424 # total power usage of dcache2_cc2
alu_power_cc2          728158751.9594 # total power usage of alu_cc2
resultbus_power_cc2    1689910119.6133 # total power usage of resultbus_cc2
clock_power_cc2        4213802633.6806 # total power usage of clock_cc2
avg_rename_power_cc2         0.4271 # avg power usage of rename unit_cc2
avg_bpred_power_cc2          1.1307 # avg power usage of bpred unit_cc2
avg_window_power_cc2        16.0685 # avg power usage of instruction window_cc2
avg_lsq_power_cc2            3.3345 # avg power usage of instruction lsq_cc2
avg_regfile_power_cc2        0.5734 # avg power usage of arch. regfile_cc2
avg_icache_power_cc2         4.2338 # avg power usage of icache_cc2
avg_dcache_power_cc2         4.6240 # avg power usage of dcache_cc2
avg_dcache2_power_cc2        0.0000 # avg power usage of dcache2_cc2
avg_alu_power_cc2            2.9126 # avg power usage of alu_cc2
avg_resultbus_power_cc2       6.7596 # avg power usage of resultbus_cc2
avg_clock_power_cc2         16.8552 # avg power usage of clock_cc2
fetch_stage_power_cc2  1341125866.1334 # total power usage of fetch stage_cc2
dispatch_stage_power_cc2 106770753.6836 # total power usage of dispatch stage_cc2
issue_stage_power_cc2  8424813205.9599 # total power usage of issue stage_cc2
avg_fetch_power_cc2          5.3645 # average power of fetch unit per cycle_cc2
avg_dispatch_power_cc2       0.4271 # average power of dispatch unit per cycle_cc2
avg_issue_power_cc2         33.6993 # average power of issue unit per cycle_cc2
total_power_cycle_cc2  14229873797.1083 # total power per cycle_cc2
avg_total_power_cycle_cc2      56.9195 # average total power per cycle_cc2
avg_total_power_insn_cc2      22.7675 # average total power per insn_cc2
rename_power_cc3       106770823.7928 # total power usage of rename unit_cc3
bpred_power_cc3        339227217.1935 # total power usage of bpred unit_cc3
window_power_cc3       4017132049.1176 # total power usage of instruction window_cc3
lsq_power_cc3          866185692.2327 # total power usage of lsq_cc3
regfile_power_cc3      143361984.6255 # total power usage of arch. regfile_cc3
icache_power_cc3       1058440895.5244 # total power usage of icache_cc3
dcache_power_cc3       1271584274.8639 # total power usage of dcache_cc3
dcache2_power_cc3      130008276.6106 # total power usage of dcache2_cc3
alu_power_cc3          1085180541.7774 # total power usage of alu_cc3
resultbus_power_cc3    1689910228.6697 # total power usage of resultbus_cc3
clock_power_cc3        4450124549.9553 # total power usage of clock_cc3
avg_rename_power_cc3         0.4271 # avg power usage of rename unit_cc3
avg_bpred_power_cc3          1.3569 # avg power usage of bpred unit_cc3
avg_window_power_cc3        16.0685 # avg power usage of instruction window_cc3
avg_lsq_power_cc3            3.4647 # avg power usage of instruction lsq_cc3
avg_regfile_power_cc3        0.5734 # avg power usage of arch. regfile_cc3
avg_icache_power_cc3         4.2338 # avg power usage of icache_cc3
avg_dcache_power_cc3         5.0863 # avg power usage of dcache_cc3
avg_dcache2_power_cc3        0.5200 # avg power usage of dcache2_cc3
avg_alu_power_cc3            4.3407 # avg power usage of alu_cc3
avg_resultbus_power_cc3       6.7596 # avg power usage of resultbus_cc3
avg_clock_power_cc3         17.8005 # avg power usage of clock_cc3
fetch_stage_power_cc3  1397668112.7178 # total power usage of fetch stage_cc3
dispatch_stage_power_cc3 106770823.7928 # total power usage of dispatch stage_cc3
issue_stage_power_cc3  9060001063.2719 # total power usage of issue stage_cc3
avg_fetch_power_cc3          5.5907 # average power of fetch unit per cycle_cc3
avg_dispatch_power_cc3       0.4271 # average power of dispatch unit per cycle_cc3
avg_issue_power_cc3         36.2400 # average power of issue unit per cycle_cc3
total_power_cycle_cc3  15157926534.3632 # total power per cycle_cc3
avg_total_power_cycle_cc3      60.6317 # average total power per cycle_cc3
avg_total_power_insn_cc3      24.2524 # average total power per insn_cc3
total_rename_access       625006857 # total number accesses of rename unit
total_bpred_access        124995860 # total number accesses of bpred unit
total_window_access      2749998044 # total number accesses of instruction window
total_lsq_access          374996015 # total number accesses of load/store queue
total_regfile_access      500007195 # total number accesses of arch. regfile
total_icache_access       625008394 # total number accesses of icache
total_dcache_access       250004442 # total number accesses of dcache
total_dcache2_access           2095 # total number accesses of dcache2
total_alu_access          625003946 # total number accesses of alu
total_resultbus_access    750004198 # total number accesses of resultbus
avg_rename_access            2.5000 # avg number accesses of rename unit
avg_bpred_access             0.5000 # avg number accesses of bpred unit
avg_window_access           11.0000 # avg number accesses of instruction window
avg_lsq_access               1.5000 # avg number accesses of lsq
avg_regfile_access           2.0000 # avg number accesses of arch. regfile
avg_icache_access            2.5000 # avg number accesses of icache
avg_dcache_access            1.0000 # avg number accesses of dcache
avg_dcache2_access           0.0000 # avg number accesses of dcache2
avg_alu_access               2.5000 # avg number accesses of alu
avg_resultbus_access         3.0000 # avg number accesses of resultbus
max_rename_access                 4 # max number accesses of rename unit
max_bpred_access                  4 # max number accesses of bpred unit
max_window_access                29 # max number accesses of instruction window
max_lsq_access                    4 # max number accesses of load/store queue
max_regfile_access               11 # max number accesses of arch. regfile
max_icache_access                 4 # max number accesses of icache
max_dcache_access                 4 # max number accesses of dcache
max_dcache2_access                6 # max number accesses of dcache2
max_alu_access                    4 # max number accesses of alu
max_resultbus_access             17 # max number accesses of resultbus
max_cycle_power_cc1        118.3206 # maximum cycle power usage of cc1
max_cycle_power_cc2         96.9759 # maximum cycle power usage of cc2
max_cycle_power_cc3        100.0235 # maximum cycle power usage of cc3


******* SMT STATS *******
THROUGHPUT IPC: 2.5000

TH0 IPC: 0.0001

TH1 IPC: 0.0000

TH2 IPC: 2.4999

TH3 IPC: 0.0001

