sim-outorder: SimpleScalar/Alpha Tool Set version 3.0 of August, 2003.
Copyright (c) 1994-2003 by Todd M. Austin, Ph.D. and SimpleScalar, LLC.
All Rights Reserved. This version of SimpleScalar is licensed for academic
non-commercial use.  No portion of this work may be used by any commercial
entity, or for any commercial purpose, without the prior written permission
of SimpleScalar, LLC (info@simplescalar.com).


Processor Parameters:
Issue Width: 4
Window Size: 224
Number of Virtual Registers: 32
Number of Physical Registers: 256
Datapath Width: 64
Total Power Consumption: 110.149
Branch Predictor Power Consumption: 4.52313  (4.18%)
 branch target buffer power (W): 4.16837
 local predict power (W): 0.0879711
 global predict power (W): 0.0996078
 chooser power (W): 0.0702439
 RAS power (W): 0.0969383
Rename Logic Power Consumption: 0.683325  (0.632%)
 Instruction Decode Power (W): 0.0159915
 RAT decode_power (W): 0.113514
 RAT wordline_power (W): 0.0493708
 RAT bitline_power (W): 0.493541
 DCL Comparators (W): 0.0109075
Instruction Window Power Consumption: 14.2762  (13.2%)
 tagdrive (W): 0.827064
 tagmatch (W): 0.360565
 Selection Logic (W): 0.0885831
 decode_power (W): 1.16922
 wordline_power (W): 0.0844643
 bitline_power (W): 11.7463
Load/Store Queue Power Consumption: 7.97171  (7.37%)
 tagdrive (W): 3.75392
 tagmatch (W): 1.61238
 decode_power (W): 0.181222
 wordline_power (W): 0.0150119
 bitline_power (W): 2.40917
Arch. Register File Power Consumption: 3.57247  (3.3%)
 decode_power (W): 0.113514
 wordline_power (W): 0.0844643
 bitline_power (W): 3.37449
Result Bus Power Consumption: 9.01293  (8.33%)
Total Clock Power: 30.4863  (28.2%)
Int ALU Power: 4.66013  (4.31%)
FP ALU Power: 14.281  (13.2%)
Instruction Cache Power Consumption: 3.97049  (3.67%)
 decode_power (W): 1.67268
 wordline_power (W): 0.028656
 bitline_power (W): 1.5122
 senseamp_power (W): 0.096
 tagarray_power (W): 0.660946
Itlb_power (W): 0.263317 (0.243%)
Data Cache Power Consumption: 8.34726  (7.72%)
 decode_power (W): 1.44978
 wordline_power (W): 0.196735
 bitline_power (W): 4.58765
 senseamp_power (W): 0.768
 tagarray_power (W): 1.34509
Dtlb_power (W): 0.900515 (0.833%)
Level 2 Cache Power Consumption: 5.20014 (4.81%)
 decode_power (W): 0.41817
 wordline_power (W): 0.0430878
 bitline_power (W): 3.0244
 senseamp_power (W): 0.192
 tagarray_power (W): 1.52247
sim-main: initalizing context 0:libquantumNS.1.arg
args: 0:./libquantum.base.alpha 1:1397 2:8 
sim: loading binary...
sim: loading ./libquantum.base.alpha
warning: section `.comment' ignored...
sim-main: initalizing context 1:mcfNS.1.arg
args: 0:./mcf.base.alpha 1:./mcf.in 
sim: loading binary...
sim: loading ./mcf.base.alpha
sim-main: initalizing context 2:namdNS.1.arg
args: 0:./namd.base.alpha 1:--input 2:./namd.input 3:--iterations 4:38 5:--output 6:./namd.out 
sim: loading binary...
sim: loading ./namd.base.alpha
warning: section `.comment' ignored...
sim-main: initalizing context 3:sjengNS.1.arg
args: 0:./sjeng.base.alpha 1:./ref.txt 
sim: loading binary...
sim: loading ./sjeng.base.alpha
sim: command line: ../m-sim_v2.0/sim-outorder libquantumNS.1.arg mcfNS.1.arg namdNS.1.arg sjengNS.1.arg 

sim: simulation started @ Thu Aug 11 13:54:23 2022, options follow:

sim-outorder: This simulator implements a very detailed out-of-order issue
superscalar processor with a two-level memory system and speculative
execution support.  This simulator is a performance simulator, tracking the
latency of all pipeline operations.

# -config                     # load configuration from a file
# -dumpconfig                 # dump configuration to a file
# -h                    false # print help message    
# -v                    false # verbose operation     
# -d                    false # enable debug message  
# -i                    false # start in Dlite debugger
-seed                       1 # random number generator seed (0 for timer seed)
# -q                    false # initialize and terminate immediately
# -redir:sim           <null> # redirect simulator output to file (non-interactive only)
# -redir:prog          <null> # redirect simulated program output to file
-nice                       0 # simulator scheduling priority
-max:inst           250000000 # maximum number of inst's to execute
-fastfwd             10000000 # number of insts skipped before timing starts
# -ptrace              <null> # generate pipetrace, i.e., <fname|stdout|stderr> <range>
-fetch:speed                1 # speed of front-end of machine relative to execution core
-bpred                  bimod # branch predictor type {nottaken|taken|perfect|bimod|2lev|comb}
-bpred:bimod     2048 # bimodal predictor config (<table size>)
-bpred:2lev      1 1024 8 0 # 2-level predictor config (<l1size> <l2size> <hist_size> <xor>)
-bpred:comb      1024 # combining predictor config (<meta_table_size>)
-bpred:ras                  8 # return address stack size (0 for no return stack)
-bpred:btb       512 4 # BTB config (<num_sets> <associativity>)
# -bpred:spec_update       <null> # speculative predictors update in {ID|WB} (default non-spec)
-cpred                  bimod # cache load-latency predictor type {nottaken|taken|perfect|bimod|2lev|comb}
-cpred:bimod     2048 # cache load-latency bimodal predictor config (<table size>)
-cpred:2lev      1 1024 8 0 # cache load-latency 2-level predictor config (<l1size> <l2size> <hist_size> <xor>)
-cpred:comb      1024 # cache load-latency combining predictor config (<meta_table_size>)
-cpred:ras                  0 # return address stack size (0 for no return stack)
-cpred:btb       512 4 # cache load-latency BTB config (<num_sets> <associativity>)
-decode:width               4 # instruction decode B/W (insts/cycle)
-issue:width                4 # instruction issue B/W (insts/cycle)
-issue:inorder          false # run pipeline with in-order issue
-issue:wrongpath         true # issue instructions down wrong execution paths
-commit:width               4 # instruction commit B/W (insts/cycle)
-rob:size                 224 # reorder buffer (ROB) size
-fetch:policy |icount|round_robin|       icount # fetch policy          
-recovery:model        squash # Alpha squash recovery or perfect predition: |squash|perfect|
-iq:size                   96 # issue queue (IQ) size 
-iq:issue_exec_delay            1 # minimum cycles between issue and execution
-fetch_rename_delay            4 # number of cycles between fetch and rename stages
-rename_dispatch_delay            1 # number cycles between rename and dispatch stages
-rf:size                  256 # register file (RF) size for each the INT and FP physical register file)
-lsq:size                 128 # load/store queue (LSQ) size
-cache:dl1       dl1:256:32:4:l # l1 data cache config, i.e., {<config>|none}
-cache:dl1lat               1 # l1 data cache hit latency (in cycles)
-cache:dl2       ul2:1024:64:8:l # l2 data cache config, i.e., {<config>|none}
-cache:dl2lat               6 # l2 data cache hit latency (in cycles)
-cache:il1       il1:512:32:2:l # l1 inst cache config, i.e., {<config>|dl1|dl2|none}
-cache:il1lat               1 # l1 instruction cache hit latency (in cycles)
-cache:il2                dl2 # l2 instruction cache config, i.e., {<config>|dl2|none}
-cache:il2lat               6 # l2 instruction cache hit latency (in cycles)
-cache:flush            false # flush caches on system calls
-cache:icompress        false # convert 64-bit inst addresses to 32-bit inst equivalents
-mem:lat         100 2 # memory access latency (<first_chunk> <inter_chunk>)
-mem:width                  8 # memory access bus width (in bytes)
-tlb:itlb        itlb:16:4096:4:l # instruction TLB config, i.e., {<config>|none}
-tlb:dtlb        dtlb:32:4096:4:l # data TLB config, i.e., {<config>|none}
-tlb:lat                   30 # inst/data TLB miss latency (in cycles)
-res:ialu                   4 # total number of integer ALU's available
-res:imult                  1 # total number of integer multiplier/dividers available
-res:memport                2 # total number of memory system ports available (to CPU)
-res:fpalu                  4 # total number of floating point ALU's available
-res:fpmult                 1 # total number of floating point multiplier/dividers available
# -pcstat              <null> # profile stat(s) against text addr's (mult uses ok)
-power:print_stats         true # print power statistics collected by wattch?

  Pipetrace range arguments are formatted as follows:

    {{@|#}<start>}:{{@|#|+}<end>}

  Both ends of the range are optional, if neither are specified, the entire
  execution is traced.  Ranges that start with a `@' designate an address
  range to be traced, those that start with an `#' designate a cycle count
  range.  All other range values represent an instruction count range.  The
  second argument, if specified with a `+', indicates a value relative
  to the first argument, e.g., 1000:+100 == 1000:1100.  Program symbols may
  be used in all contexts.

    Examples:   -ptrace FOO.trc #0:#1000
                -ptrace BAR.trc @2000:
                -ptrace BLAH.trc :1500
                -ptrace UXXE.trc :
                -ptrace FOOBAR.trc @main:+278

  Branch predictor configuration examples for 2-level predictor:
    Configurations:   N, M, W, X
      N   # entries in first level (# of shift register(s))
      W   width of shift register(s)
      M   # entries in 2nd level (# of counters, or other FSM)
      X   (yes-1/no-0) xor history and address for 2nd level index
    Sample predictors:
      GAg     : 1, W, 2^W, 0
      GAp     : 1, W, M (M > 2^W), 0
      PAg     : N, W, 2^W, 0
      PAp     : N, W, M (M == 2^(N+W)), 0
      gshare  : 1, W, 2^W, 1
  Predictor `comb' combines a bimodal and a 2-level predictor.

  The cache config parameter <config> has the following format:

    <name>:<nsets>:<bsize>:<assoc>:<repl>

    <name>   - name of the cache being defined
    <nsets>  - number of sets in the cache
    <bsize>  - block size of the cache
    <assoc>  - associativity of the cache
    <repl>   - block replacement strategy, 'l'-LRU, 'f'-FIFO, 'r'-random

    Examples:   -cache:dl1 dl1:4096:32:1:l
                -dtlb dtlb:128:4096:32:r

  Cache levels can be unified by pointing a level of the instruction cache
  hierarchy at the data cache hiearchy using the "dl1" and "dl2" cache
  configuration arguments.  Most sensible combinations are supported, e.g.,

    A unified l2 cache (il2 is pointed at dl2):
      -cache:il1 il1:128:64:1:l -cache:il2 dl2
      -cache:dl1 dl1:256:32:1:l -cache:dl2 ul2:1024:64:2:l

    Or, a fully unified cache hierarchy (il1 pointed at dl1):
      -cache:il1 dl1
      -cache:dl1 ul1:256:32:1:l -cache:dl2 ul2:1024:64:2:l



sim: ** fast forwarding insts **
warning: unsupported ioctl call: ioctl(536900702, ...)
warning: invalid/unimplemented syscall 226, PC=0x1200b4a54, RA=0x120098314, winging it
warning: unsupported ioctl call: ioctl(536900702, ...)
sim: ** starting performance simulation **
EPOCH STARTS
TH0 ROB: 4 LSQ: 3 IQ: 0 IPC: 0.0120
TH1 ROB: 4 LSQ: 3 IQ: 0, IPC: 0.0104
TH2 ROB: 4 LSQ: 2 IQ: 0, IPC: 0.0087
TH3 ROB: 104 LSQ: 85 IQ: 96, IPC: 2.1662
EPOCH ENDS
EPOCH STARTS
TH0 ROB: 4 LSQ: 3 IQ: 0 IPC: 0.0060
TH1 ROB: 4 LSQ: 3 IQ: 0, IPC: 0.0052
TH2 ROB: 4 LSQ: 2 IQ: 0, IPC: 0.0044
TH3 ROB: 104 LSQ: 85 IQ: 96, IPC: 2.1812
EPOCH ENDS
EPOCH STARTS
TH0 ROB: 4 LSQ: 3 IQ: 0 IPC: 0.0040
TH1 ROB: 4 LSQ: 3 IQ: 0, IPC: 0.0035
TH2 ROB: 4 LSQ: 2 IQ: 0, IPC: 0.0029
TH3 ROB: 105 LSQ: 86 IQ: 96, IPC: 2.1861
EPOCH ENDS
EPOCH STARTS
TH0 ROB: 4 LSQ: 3 IQ: 0 IPC: 0.0030
TH1 ROB: 4 LSQ: 3 IQ: 0, IPC: 0.0026
TH2 ROB: 4 LSQ: 2 IQ: 0, IPC: 0.0022
TH3 ROB: 105 LSQ: 87 IQ: 96, IPC: 2.1886
EPOCH ENDS
EPOCH STARTS
TH0 ROB: 4 LSQ: 3 IQ: 0 IPC: 0.0024
TH1 ROB: 4 LSQ: 3 IQ: 0, IPC: 0.0021
TH2 ROB: 4 LSQ: 2 IQ: 0, IPC: 0.0017
TH3 ROB: 106 LSQ: 87 IQ: 96, IPC: 2.1901
EPOCH ENDS
EPOCH STARTS
TH0 ROB: 4 LSQ: 3 IQ: 0 IPC: 0.0020
TH1 ROB: 4 LSQ: 3 IQ: 0, IPC: 0.0017
TH2 ROB: 4 LSQ: 2 IQ: 0, IPC: 0.0015
TH3 ROB: 104 LSQ: 85 IQ: 96, IPC: 2.1911
EPOCH ENDS
EPOCH STARTS
TH0 ROB: 4 LSQ: 3 IQ: 0 IPC: 0.0017
TH1 ROB: 4 LSQ: 3 IQ: 0, IPC: 0.0015
TH2 ROB: 4 LSQ: 2 IQ: 0, IPC: 0.0012
TH3 ROB: 104 LSQ: 85 IQ: 96, IPC: 2.1918
EPOCH ENDS
EPOCH STARTS
TH0 ROB: 4 LSQ: 3 IQ: 0 IPC: 0.0015
TH1 ROB: 4 LSQ: 3 IQ: 0, IPC: 0.0013
TH2 ROB: 4 LSQ: 2 IQ: 0, IPC: 0.0011
TH3 ROB: 104 LSQ: 85 IQ: 96, IPC: 2.1923
EPOCH ENDS
EPOCH STARTS
TH0 ROB: 4 LSQ: 3 IQ: 0 IPC: 0.0013
TH1 ROB: 4 LSQ: 3 IQ: 0, IPC: 0.0012
TH2 ROB: 4 LSQ: 2 IQ: 0, IPC: 0.0010
TH3 ROB: 105 LSQ: 87 IQ: 96, IPC: 2.1928
EPOCH ENDS
EPOCH STARTS
TH0 ROB: 4 LSQ: 3 IQ: 0 IPC: 0.0012
TH1 ROB: 4 LSQ: 3 IQ: 0, IPC: 0.0010
TH2 ROB: 4 LSQ: 2 IQ: 0, IPC: 0.0009
TH3 ROB: 105 LSQ: 86 IQ: 96, IPC: 2.1931
EPOCH ENDS
EPOCH STARTS
TH0 ROB: 4 LSQ: 3 IQ: 0 IPC: 0.0011
TH1 ROB: 4 LSQ: 3 IQ: 0, IPC: 0.0009
TH2 ROB: 4 LSQ: 2 IQ: 0, IPC: 0.0008
TH3 ROB: 104 LSQ: 85 IQ: 96, IPC: 2.1934
EPOCH ENDS
EPOCH STARTS
TH0 ROB: 4 LSQ: 3 IQ: 0 IPC: 0.0010
TH1 ROB: 4 LSQ: 3 IQ: 0, IPC: 0.0009
TH2 ROB: 4 LSQ: 2 IQ: 0, IPC: 0.0007
TH3 ROB: 104 LSQ: 85 IQ: 96, IPC: 2.1936
EPOCH ENDS
EPOCH STARTS
TH0 ROB: 4 LSQ: 3 IQ: 0 IPC: 0.0009
TH1 ROB: 4 LSQ: 3 IQ: 0, IPC: 0.0008
TH2 ROB: 4 LSQ: 2 IQ: 0, IPC: 0.0007
TH3 ROB: 104 LSQ: 87 IQ: 96, IPC: 2.1938
EPOCH ENDS
EPOCH STARTS
TH0 ROB: 4 LSQ: 3 IQ: 0 IPC: 0.0009
TH1 ROB: 4 LSQ: 3 IQ: 0, IPC: 0.0007
TH2 ROB: 4 LSQ: 2 IQ: 0, IPC: 0.0006
TH3 ROB: 105 LSQ: 87 IQ: 96, IPC: 2.1939
EPOCH ENDS
EPOCH STARTS
TH0 ROB: 4 LSQ: 3 IQ: 0 IPC: 0.0008
TH1 ROB: 4 LSQ: 3 IQ: 0, IPC: 0.0007
TH2 ROB: 4 LSQ: 2 IQ: 0, IPC: 0.0006
TH3 ROB: 105 LSQ: 85 IQ: 96, IPC: 2.1941
EPOCH ENDS
EPOCH STARTS
TH0 ROB: 4 LSQ: 3 IQ: 0 IPC: 0.0007
TH1 ROB: 4 LSQ: 3 IQ: 0, IPC: 0.0007
TH2 ROB: 4 LSQ: 2 IQ: 0, IPC: 0.0005
TH3 ROB: 104 LSQ: 85 IQ: 96, IPC: 2.1942
EPOCH ENDS
EPOCH STARTS
TH0 ROB: 4 LSQ: 3 IQ: 0 IPC: 0.0007
TH1 ROB: 4 LSQ: 3 IQ: 0, IPC: 0.0006
TH2 ROB: 4 LSQ: 2 IQ: 0, IPC: 0.0005
TH3 ROB: 104 LSQ: 85 IQ: 96, IPC: 2.1943
EPOCH ENDS
EPOCH STARTS
TH0 ROB: 4 LSQ: 3 IQ: 0 IPC: 0.0007
TH1 ROB: 4 LSQ: 3 IQ: 0, IPC: 0.0006
TH2 ROB: 4 LSQ: 2 IQ: 0, IPC: 0.0005
TH3 ROB: 104 LSQ: 86 IQ: 96, IPC: 2.1944
EPOCH ENDS
EPOCH STARTS
TH0 ROB: 4 LSQ: 3 IQ: 0 IPC: 0.0006
TH1 ROB: 4 LSQ: 3 IQ: 0, IPC: 0.0005
TH2 ROB: 4 LSQ: 2 IQ: 0, IPC: 0.0005
TH3 ROB: 107 LSQ: 88 IQ: 96, IPC: 2.1945
EPOCH ENDS
EPOCH STARTS
TH0 ROB: 4 LSQ: 3 IQ: 0 IPC: 0.0006
TH1 ROB: 4 LSQ: 3 IQ: 0, IPC: 0.0005
TH2 ROB: 4 LSQ: 2 IQ: 0, IPC: 0.0004
TH3 ROB: 105 LSQ: 86 IQ: 96, IPC: 2.1946
EPOCH ENDS
EPOCH STARTS
TH0 ROB: 4 LSQ: 3 IQ: 0 IPC: 0.0006
TH1 ROB: 4 LSQ: 3 IQ: 0, IPC: 0.0005
TH2 ROB: 4 LSQ: 2 IQ: 0, IPC: 0.0004
TH3 ROB: 105 LSQ: 85 IQ: 96, IPC: 2.1947
EPOCH ENDS
EPOCH STARTS
TH0 ROB: 4 LSQ: 3 IQ: 0 IPC: 0.0005
TH1 ROB: 4 LSQ: 3 IQ: 0, IPC: 0.0005
TH2 ROB: 4 LSQ: 2 IQ: 0, IPC: 0.0004
TH3 ROB: 104 LSQ: 85 IQ: 96, IPC: 2.1947
EPOCH ENDS
EPOCH STARTS
TH0 ROB: 4 LSQ: 3 IQ: 0 IPC: 0.0005
TH1 ROB: 4 LSQ: 3 IQ: 0, IPC: 0.0005
TH2 ROB: 4 LSQ: 2 IQ: 0, IPC: 0.0004
TH3 ROB: 105 LSQ: 87 IQ: 96, IPC: 2.1948
EPOCH ENDS
EPOCH STARTS
TH0 ROB: 4 LSQ: 3 IQ: 0 IPC: 0.0005
TH1 ROB: 4 LSQ: 3 IQ: 0, IPC: 0.0004
TH2 ROB: 4 LSQ: 2 IQ: 0, IPC: 0.0004
TH3 ROB: 105 LSQ: 86 IQ: 96, IPC: 2.1948
EPOCH ENDS
EPOCH STARTS
TH0 ROB: 4 LSQ: 3 IQ: 0 IPC: 0.0005
TH1 ROB: 4 LSQ: 3 IQ: 0, IPC: 0.0004
TH2 ROB: 4 LSQ: 2 IQ: 0, IPC: 0.0003
TH3 ROB: 104 LSQ: 85 IQ: 96, IPC: 2.1949
EPOCH ENDS
EPOCH STARTS
TH0 ROB: 4 LSQ: 3 IQ: 0 IPC: 0.0005
TH1 ROB: 4 LSQ: 3 IQ: 0, IPC: 0.0004
TH2 ROB: 4 LSQ: 2 IQ: 0, IPC: 0.0003
TH3 ROB: 105 LSQ: 86 IQ: 96, IPC: 2.1949
EPOCH ENDS
EPOCH STARTS
TH0 ROB: 4 LSQ: 3 IQ: 0 IPC: 0.0004
TH1 ROB: 4 LSQ: 3 IQ: 0, IPC: 0.0004
TH2 ROB: 4 LSQ: 2 IQ: 0, IPC: 0.0003
TH3 ROB: 105 LSQ: 87 IQ: 96, IPC: 2.1950
EPOCH ENDS
EPOCH STARTS
TH0 ROB: 4 LSQ: 3 IQ: 0 IPC: 0.0004
TH1 ROB: 4 LSQ: 3 IQ: 0, IPC: 0.0004
TH2 ROB: 4 LSQ: 2 IQ: 0, IPC: 0.0003
TH3 ROB: 105 LSQ: 87 IQ: 96, IPC: 2.1950
EPOCH ENDS
EPOCH STARTS
TH0 ROB: 4 LSQ: 3 IQ: 0 IPC: 0.0004
TH1 ROB: 4 LSQ: 3 IQ: 0, IPC: 0.0004
TH2 ROB: 4 LSQ: 2 IQ: 0, IPC: 0.0003
TH3 ROB: 106 LSQ: 87 IQ: 96, IPC: 2.1950
EPOCH ENDS
EPOCH STARTS
TH0 ROB: 4 LSQ: 3 IQ: 0 IPC: 0.0004
TH1 ROB: 4 LSQ: 3 IQ: 0, IPC: 0.0003
TH2 ROB: 4 LSQ: 2 IQ: 0, IPC: 0.0003
TH3 ROB: 104 LSQ: 85 IQ: 96, IPC: 2.1951
EPOCH ENDS
EPOCH STARTS
TH0 ROB: 4 LSQ: 3 IQ: 0 IPC: 0.0004
TH1 ROB: 4 LSQ: 3 IQ: 0, IPC: 0.0003
TH2 ROB: 4 LSQ: 2 IQ: 0, IPC: 0.0003
TH3 ROB: 104 LSQ: 85 IQ: 96, IPC: 2.1951
EPOCH ENDS
EPOCH STARTS
TH0 ROB: 4 LSQ: 3 IQ: 0 IPC: 0.0004
TH1 ROB: 4 LSQ: 3 IQ: 0, IPC: 0.0003
TH2 ROB: 4 LSQ: 2 IQ: 0, IPC: 0.0003
TH3 ROB: 105 LSQ: 87 IQ: 96, IPC: 2.1951
EPOCH ENDS
EPOCH STARTS
TH0 ROB: 4 LSQ: 3 IQ: 0 IPC: 0.0004
TH1 ROB: 4 LSQ: 3 IQ: 0, IPC: 0.0003
TH2 ROB: 4 LSQ: 2 IQ: 0, IPC: 0.0003
TH3 ROB: 106 LSQ: 87 IQ: 96, IPC: 2.1952
EPOCH ENDS
EPOCH STARTS
TH0 ROB: 4 LSQ: 3 IQ: 0 IPC: 0.0004
TH1 ROB: 4 LSQ: 3 IQ: 0, IPC: 0.0003
TH2 ROB: 4 LSQ: 2 IQ: 0, IPC: 0.0003
TH3 ROB: 106 LSQ: 87 IQ: 96, IPC: 2.1952
EPOCH ENDS
EPOCH STARTS
TH0 ROB: 4 LSQ: 3 IQ: 0 IPC: 0.0003
TH1 ROB: 4 LSQ: 3 IQ: 0, IPC: 0.0003
TH2 ROB: 4 LSQ: 2 IQ: 0, IPC: 0.0002
TH3 ROB: 106 LSQ: 87 IQ: 96, IPC: 2.1952
EPOCH ENDS
EPOCH STARTS
TH0 ROB: 4 LSQ: 3 IQ: 0 IPC: 0.0003
TH1 ROB: 4 LSQ: 3 IQ: 0, IPC: 0.0003
TH2 ROB: 4 LSQ: 2 IQ: 0, IPC: 0.0002
TH3 ROB: 104 LSQ: 86 IQ: 96, IPC: 2.1953
EPOCH ENDS
EPOCH STARTS
TH0 ROB: 4 LSQ: 3 IQ: 0 IPC: 0.0003
TH1 ROB: 4 LSQ: 3 IQ: 0, IPC: 0.0003
TH2 ROB: 4 LSQ: 2 IQ: 0, IPC: 0.0002
TH3 ROB: 104 LSQ: 87 IQ: 96, IPC: 2.1953
EPOCH ENDS
EPOCH STARTS
TH0 ROB: 4 LSQ: 3 IQ: 0 IPC: 0.0003
TH1 ROB: 4 LSQ: 3 IQ: 0, IPC: 0.0003
TH2 ROB: 4 LSQ: 2 IQ: 0, IPC: 0.0002
TH3 ROB: 105 LSQ: 86 IQ: 96, IPC: 2.1953
EPOCH ENDS
EPOCH STARTS
TH0 ROB: 4 LSQ: 3 IQ: 0 IPC: 0.0003
TH1 ROB: 4 LSQ: 3 IQ: 0, IPC: 0.0003
TH2 ROB: 4 LSQ: 2 IQ: 0, IPC: 0.0002
TH3 ROB: 105 LSQ: 86 IQ: 96, IPC: 2.1953
EPOCH ENDS
EPOCH STARTS
TH0 ROB: 4 LSQ: 3 IQ: 0 IPC: 0.0003
TH1 ROB: 4 LSQ: 3 IQ: 0, IPC: 0.0003
TH2 ROB: 4 LSQ: 2 IQ: 0, IPC: 0.0002
TH3 ROB: 106 LSQ: 87 IQ: 96, IPC: 2.1953
EPOCH ENDS
EPOCH STARTS
TH0 ROB: 4 LSQ: 3 IQ: 0 IPC: 0.0003
TH1 ROB: 4 LSQ: 3 IQ: 0, IPC: 0.0003
TH2 ROB: 4 LSQ: 2 IQ: 0, IPC: 0.0002
TH3 ROB: 105 LSQ: 87 IQ: 96, IPC: 2.1954
EPOCH ENDS
EPOCH STARTS
TH0 ROB: 4 LSQ: 3 IQ: 0 IPC: 0.0003
TH1 ROB: 4 LSQ: 3 IQ: 0, IPC: 0.0002
TH2 ROB: 4 LSQ: 2 IQ: 0, IPC: 0.0002
TH3 ROB: 105 LSQ: 86 IQ: 96, IPC: 2.1954
EPOCH ENDS
EPOCH STARTS
TH0 ROB: 4 LSQ: 3 IQ: 0 IPC: 0.0003
TH1 ROB: 4 LSQ: 3 IQ: 0, IPC: 0.0002
TH2 ROB: 4 LSQ: 2 IQ: 0, IPC: 0.0002
TH3 ROB: 105 LSQ: 86 IQ: 96, IPC: 2.1954
EPOCH ENDS
EPOCH STARTS
TH0 ROB: 4 LSQ: 3 IQ: 0 IPC: 0.0003
TH1 ROB: 4 LSQ: 3 IQ: 0, IPC: 0.0002
TH2 ROB: 4 LSQ: 2 IQ: 0, IPC: 0.0002
TH3 ROB: 105 LSQ: 86 IQ: 96, IPC: 2.1954
EPOCH ENDS
EPOCH STARTS
TH0 ROB: 4 LSQ: 3 IQ: 0 IPC: 0.0003
TH1 ROB: 4 LSQ: 3 IQ: 0, IPC: 0.0002
TH2 ROB: 4 LSQ: 2 IQ: 0, IPC: 0.0002
TH3 ROB: 105 LSQ: 86 IQ: 96, IPC: 2.1954
EPOCH ENDS
EPOCH STARTS
TH0 ROB: 4 LSQ: 3 IQ: 0 IPC: 0.0003
TH1 ROB: 4 LSQ: 3 IQ: 0, IPC: 0.0002
TH2 ROB: 4 LSQ: 2 IQ: 0, IPC: 0.0002
TH3 ROB: 105 LSQ: 87 IQ: 96, IPC: 2.1954
EPOCH ENDS
EPOCH STARTS
TH0 ROB: 4 LSQ: 3 IQ: 0 IPC: 0.0003
TH1 ROB: 4 LSQ: 3 IQ: 0, IPC: 0.0002
TH2 ROB: 4 LSQ: 2 IQ: 0, IPC: 0.0002
TH3 ROB: 105 LSQ: 86 IQ: 96, IPC: 2.1954
EPOCH ENDS
EPOCH STARTS
TH0 ROB: 4 LSQ: 3 IQ: 0 IPC: 0.0002
TH1 ROB: 4 LSQ: 3 IQ: 0, IPC: 0.0002
TH2 ROB: 4 LSQ: 2 IQ: 0, IPC: 0.0002
TH3 ROB: 105 LSQ: 86 IQ: 96, IPC: 2.1955
EPOCH ENDS
EPOCH STARTS
TH0 ROB: 4 LSQ: 3 IQ: 0 IPC: 0.0002
TH1 ROB: 4 LSQ: 3 IQ: 0, IPC: 0.0002
TH2 ROB: 4 LSQ: 2 IQ: 0, IPC: 0.0002
TH3 ROB: 105 LSQ: 86 IQ: 96, IPC: 2.1955
EPOCH ENDS
EPOCH STARTS
TH0 ROB: 4 LSQ: 3 IQ: 0 IPC: 0.0002
TH1 ROB: 4 LSQ: 3 IQ: 0, IPC: 0.0002
TH2 ROB: 4 LSQ: 2 IQ: 0, IPC: 0.0002
TH3 ROB: 105 LSQ: 87 IQ: 96, IPC: 2.1955
EPOCH ENDS
EPOCH STARTS
TH0 ROB: 4 LSQ: 3 IQ: 0 IPC: 0.0002
TH1 ROB: 4 LSQ: 3 IQ: 0, IPC: 0.0002
TH2 ROB: 4 LSQ: 2 IQ: 0, IPC: 0.0002
TH3 ROB: 105 LSQ: 88 IQ: 96, IPC: 2.1955
EPOCH ENDS
EPOCH STARTS
TH0 ROB: 4 LSQ: 3 IQ: 0 IPC: 0.0002
TH1 ROB: 4 LSQ: 3 IQ: 0, IPC: 0.0002
TH2 ROB: 4 LSQ: 2 IQ: 0, IPC: 0.0002
TH3 ROB: 104 LSQ: 85 IQ: 96, IPC: 2.1955
EPOCH ENDS
EPOCH STARTS
TH0 ROB: 4 LSQ: 3 IQ: 0 IPC: 0.0002
TH1 ROB: 4 LSQ: 3 IQ: 0, IPC: 0.0002
TH2 ROB: 4 LSQ: 2 IQ: 0, IPC: 0.0002
TH3 ROB: 104 LSQ: 85 IQ: 96, IPC: 2.1955
EPOCH ENDS
EPOCH STARTS
TH0 ROB: 4 LSQ: 3 IQ: 0 IPC: 0.0002
TH1 ROB: 4 LSQ: 3 IQ: 0, IPC: 0.0002
TH2 ROB: 4 LSQ: 2 IQ: 0, IPC: 0.0002
TH3 ROB: 105 LSQ: 86 IQ: 96, IPC: 2.1955
EPOCH ENDS
EPOCH STARTS
TH0 ROB: 4 LSQ: 3 IQ: 0 IPC: 0.0002
TH1 ROB: 4 LSQ: 3 IQ: 0, IPC: 0.0002
TH2 ROB: 4 LSQ: 2 IQ: 0, IPC: 0.0002
TH3 ROB: 105 LSQ: 87 IQ: 96, IPC: 2.1955
EPOCH ENDS
EPOCH STARTS
TH0 ROB: 4 LSQ: 3 IQ: 0 IPC: 0.0002
TH1 ROB: 4 LSQ: 3 IQ: 0, IPC: 0.0002
TH2 ROB: 4 LSQ: 2 IQ: 0, IPC: 0.0002
TH3 ROB: 106 LSQ: 87 IQ: 96, IPC: 2.1955
EPOCH ENDS
EPOCH STARTS
TH0 ROB: 4 LSQ: 3 IQ: 0 IPC: 0.0002
TH1 ROB: 4 LSQ: 3 IQ: 0, IPC: 0.0002
TH2 ROB: 4 LSQ: 2 IQ: 0, IPC: 0.0002
TH3 ROB: 104 LSQ: 85 IQ: 96, IPC: 2.1956
EPOCH ENDS
EPOCH STARTS
TH0 ROB: 4 LSQ: 3 IQ: 0 IPC: 0.0002
TH1 ROB: 4 LSQ: 3 IQ: 0, IPC: 0.0002
TH2 ROB: 4 LSQ: 2 IQ: 0, IPC: 0.0002
TH3 ROB: 104 LSQ: 85 IQ: 96, IPC: 2.1956
EPOCH ENDS
EPOCH STARTS
TH0 ROB: 4 LSQ: 3 IQ: 0 IPC: 0.0002
TH1 ROB: 4 LSQ: 3 IQ: 0, IPC: 0.0002
TH2 ROB: 4 LSQ: 2 IQ: 0, IPC: 0.0001
TH3 ROB: 104 LSQ: 85 IQ: 96, IPC: 2.1956
EPOCH ENDS
EPOCH STARTS
TH0 ROB: 4 LSQ: 3 IQ: 0 IPC: 0.0002
TH1 ROB: 4 LSQ: 3 IQ: 0, IPC: 0.0002
TH2 ROB: 4 LSQ: 2 IQ: 0, IPC: 0.0001
TH3 ROB: 105 LSQ: 87 IQ: 96, IPC: 2.1956
EPOCH ENDS
EPOCH STARTS
TH0 ROB: 4 LSQ: 3 IQ: 0 IPC: 0.0002
TH1 ROB: 4 LSQ: 3 IQ: 0, IPC: 0.0002
TH2 ROB: 4 LSQ: 2 IQ: 0, IPC: 0.0001
TH3 ROB: 105 LSQ: 86 IQ: 96, IPC: 2.1956
EPOCH ENDS
EPOCH STARTS
TH0 ROB: 4 LSQ: 3 IQ: 0 IPC: 0.0002
TH1 ROB: 4 LSQ: 3 IQ: 0, IPC: 0.0002
TH2 ROB: 4 LSQ: 2 IQ: 0, IPC: 0.0001
TH3 ROB: 104 LSQ: 85 IQ: 96, IPC: 2.1956
EPOCH ENDS
EPOCH STARTS
TH0 ROB: 4 LSQ: 3 IQ: 0 IPC: 0.0002
TH1 ROB: 4 LSQ: 3 IQ: 0, IPC: 0.0002
TH2 ROB: 4 LSQ: 2 IQ: 0, IPC: 0.0001
TH3 ROB: 104 LSQ: 85 IQ: 96, IPC: 2.1956
EPOCH ENDS
EPOCH STARTS
TH0 ROB: 4 LSQ: 3 IQ: 0 IPC: 0.0002
TH1 ROB: 4 LSQ: 3 IQ: 0, IPC: 0.0002
TH2 ROB: 4 LSQ: 2 IQ: 0, IPC: 0.0001
TH3 ROB: 104 LSQ: 87 IQ: 96, IPC: 2.1956
EPOCH ENDS
EPOCH STARTS
TH0 ROB: 4 LSQ: 3 IQ: 0 IPC: 0.0002
TH1 ROB: 4 LSQ: 3 IQ: 0, IPC: 0.0002
TH2 ROB: 4 LSQ: 2 IQ: 0, IPC: 0.0001
TH3 ROB: 105 LSQ: 87 IQ: 96, IPC: 2.1956
EPOCH ENDS
EPOCH STARTS
TH0 ROB: 4 LSQ: 3 IQ: 0 IPC: 0.0002
TH1 ROB: 4 LSQ: 3 IQ: 0, IPC: 0.0002
TH2 ROB: 4 LSQ: 2 IQ: 0, IPC: 0.0001
TH3 ROB: 105 LSQ: 85 IQ: 96, IPC: 2.1956
EPOCH ENDS
EPOCH STARTS
TH0 ROB: 4 LSQ: 3 IQ: 0 IPC: 0.0002
TH1 ROB: 4 LSQ: 3 IQ: 0, IPC: 0.0002
TH2 ROB: 4 LSQ: 2 IQ: 0, IPC: 0.0001
TH3 ROB: 104 LSQ: 85 IQ: 96, IPC: 2.1956
EPOCH ENDS
EPOCH STARTS
TH0 ROB: 4 LSQ: 3 IQ: 0 IPC: 0.0002
TH1 ROB: 4 LSQ: 3 IQ: 0, IPC: 0.0002
TH2 ROB: 4 LSQ: 2 IQ: 0, IPC: 0.0001
TH3 ROB: 104 LSQ: 85 IQ: 96, IPC: 2.1956
EPOCH ENDS
EPOCH STARTS
TH0 ROB: 4 LSQ: 3 IQ: 0 IPC: 0.0002
TH1 ROB: 4 LSQ: 3 IQ: 0, IPC: 0.0002
TH2 ROB: 4 LSQ: 2 IQ: 0, IPC: 0.0001
TH3 ROB: 104 LSQ: 86 IQ: 96, IPC: 2.1956
EPOCH ENDS
EPOCH STARTS
TH0 ROB: 4 LSQ: 3 IQ: 0 IPC: 0.0002
TH1 ROB: 4 LSQ: 3 IQ: 0, IPC: 0.0001
TH2 ROB: 4 LSQ: 2 IQ: 0, IPC: 0.0001
TH3 ROB: 107 LSQ: 88 IQ: 96, IPC: 2.1957
EPOCH ENDS
EPOCH STARTS
TH0 ROB: 4 LSQ: 3 IQ: 0 IPC: 0.0002
TH1 ROB: 4 LSQ: 3 IQ: 0, IPC: 0.0001
TH2 ROB: 4 LSQ: 2 IQ: 0, IPC: 0.0001
TH3 ROB: 105 LSQ: 86 IQ: 96, IPC: 2.1957
EPOCH ENDS
EPOCH STARTS
TH0 ROB: 4 LSQ: 3 IQ: 0 IPC: 0.0002
TH1 ROB: 4 LSQ: 3 IQ: 0, IPC: 0.0001
TH2 ROB: 4 LSQ: 2 IQ: 0, IPC: 0.0001
TH3 ROB: 105 LSQ: 85 IQ: 96, IPC: 2.1957
EPOCH ENDS
EPOCH STARTS
TH0 ROB: 4 LSQ: 3 IQ: 0 IPC: 0.0002
TH1 ROB: 4 LSQ: 3 IQ: 0, IPC: 0.0001
TH2 ROB: 4 LSQ: 2 IQ: 0, IPC: 0.0001
TH3 ROB: 104 LSQ: 85 IQ: 96, IPC: 2.1957
EPOCH ENDS
EPOCH STARTS
TH0 ROB: 4 LSQ: 3 IQ: 0 IPC: 0.0002
TH1 ROB: 4 LSQ: 3 IQ: 0, IPC: 0.0001
TH2 ROB: 4 LSQ: 2 IQ: 0, IPC: 0.0001
TH3 ROB: 105 LSQ: 87 IQ: 96, IPC: 2.1957
EPOCH ENDS
EPOCH STARTS
TH0 ROB: 4 LSQ: 3 IQ: 0 IPC: 0.0002
TH1 ROB: 4 LSQ: 3 IQ: 0, IPC: 0.0001
TH2 ROB: 4 LSQ: 2 IQ: 0, IPC: 0.0001
TH3 ROB: 105 LSQ: 86 IQ: 96, IPC: 2.1957
EPOCH ENDS
EPOCH STARTS
TH0 ROB: 4 LSQ: 3 IQ: 0 IPC: 0.0002
TH1 ROB: 4 LSQ: 3 IQ: 0, IPC: 0.0001
TH2 ROB: 4 LSQ: 2 IQ: 0, IPC: 0.0001
TH3 ROB: 104 LSQ: 85 IQ: 96, IPC: 2.1957
EPOCH ENDS
EPOCH STARTS
TH0 ROB: 4 LSQ: 3 IQ: 0 IPC: 0.0002
TH1 ROB: 4 LSQ: 3 IQ: 0, IPC: 0.0001
TH2 ROB: 4 LSQ: 2 IQ: 0, IPC: 0.0001
TH3 ROB: 105 LSQ: 86 IQ: 96, IPC: 2.1957
EPOCH ENDS
EPOCH STARTS
TH0 ROB: 4 LSQ: 3 IQ: 0 IPC: 0.0002
TH1 ROB: 4 LSQ: 3 IQ: 0, IPC: 0.0001
TH2 ROB: 4 LSQ: 2 IQ: 0, IPC: 0.0001
TH3 ROB: 105 LSQ: 87 IQ: 96, IPC: 2.1957
EPOCH ENDS
EPOCH STARTS
TH0 ROB: 4 LSQ: 3 IQ: 0 IPC: 0.0002
TH1 ROB: 4 LSQ: 3 IQ: 0, IPC: 0.0001
TH2 ROB: 4 LSQ: 2 IQ: 0, IPC: 0.0001
TH3 ROB: 105 LSQ: 87 IQ: 96, IPC: 2.1957
EPOCH ENDS
EPOCH STARTS
TH0 ROB: 4 LSQ: 3 IQ: 0 IPC: 0.0001
TH1 ROB: 4 LSQ: 3 IQ: 0, IPC: 0.0001
TH2 ROB: 4 LSQ: 2 IQ: 0, IPC: 0.0001
TH3 ROB: 106 LSQ: 87 IQ: 96, IPC: 2.1957
EPOCH ENDS
EPOCH STARTS
TH0 ROB: 4 LSQ: 3 IQ: 0 IPC: 0.0001
TH1 ROB: 4 LSQ: 3 IQ: 0, IPC: 0.0001
TH2 ROB: 4 LSQ: 2 IQ: 0, IPC: 0.0001
TH3 ROB: 104 LSQ: 85 IQ: 96, IPC: 2.1957
EPOCH ENDS
EPOCH STARTS
TH0 ROB: 4 LSQ: 3 IQ: 0 IPC: 0.0001
TH1 ROB: 4 LSQ: 3 IQ: 0, IPC: 0.0001
TH2 ROB: 4 LSQ: 2 IQ: 0, IPC: 0.0001
TH3 ROB: 104 LSQ: 85 IQ: 96, IPC: 2.1957
EPOCH ENDS
EPOCH STARTS
TH0 ROB: 4 LSQ: 3 IQ: 0 IPC: 0.0001
TH1 ROB: 4 LSQ: 3 IQ: 0, IPC: 0.0001
TH2 ROB: 4 LSQ: 2 IQ: 0, IPC: 0.0001
TH3 ROB: 105 LSQ: 87 IQ: 96, IPC: 2.1957
EPOCH ENDS
EPOCH STARTS
TH0 ROB: 4 LSQ: 3 IQ: 0 IPC: 0.0001
TH1 ROB: 4 LSQ: 3 IQ: 0, IPC: 0.0001
TH2 ROB: 4 LSQ: 2 IQ: 0, IPC: 0.0001
TH3 ROB: 106 LSQ: 87 IQ: 96, IPC: 2.1957
EPOCH ENDS
EPOCH STARTS
TH0 ROB: 4 LSQ: 3 IQ: 0 IPC: 0.0001
TH1 ROB: 4 LSQ: 3 IQ: 0, IPC: 0.0001
TH2 ROB: 4 LSQ: 2 IQ: 0, IPC: 0.0001
TH3 ROB: 106 LSQ: 87 IQ: 96, IPC: 2.1957
EPOCH ENDS
EPOCH STARTS
TH0 ROB: 4 LSQ: 3 IQ: 0 IPC: 0.0001
TH1 ROB: 4 LSQ: 3 IQ: 0, IPC: 0.0001
TH2 ROB: 4 LSQ: 2 IQ: 0, IPC: 0.0001
TH3 ROB: 106 LSQ: 87 IQ: 96, IPC: 2.1957
EPOCH ENDS
EPOCH STARTS
TH0 ROB: 4 LSQ: 3 IQ: 0 IPC: 0.0001
TH1 ROB: 4 LSQ: 3 IQ: 0, IPC: 0.0001
TH2 ROB: 4 LSQ: 2 IQ: 0, IPC: 0.0001
TH3 ROB: 104 LSQ: 86 IQ: 96, IPC: 2.1957
EPOCH ENDS
EPOCH STARTS
TH0 ROB: 4 LSQ: 3 IQ: 0 IPC: 0.0001
TH1 ROB: 4 LSQ: 3 IQ: 0, IPC: 0.0001
TH2 ROB: 4 LSQ: 2 IQ: 0, IPC: 0.0001
TH3 ROB: 104 LSQ: 87 IQ: 96, IPC: 2.1957
EPOCH ENDS
EPOCH STARTS
TH0 ROB: 4 LSQ: 3 IQ: 0 IPC: 0.0001
TH1 ROB: 4 LSQ: 3 IQ: 0, IPC: 0.0001
TH2 ROB: 4 LSQ: 2 IQ: 0, IPC: 0.0001
TH3 ROB: 105 LSQ: 86 IQ: 96, IPC: 2.1957
EPOCH ENDS
EPOCH STARTS
TH0 ROB: 4 LSQ: 3 IQ: 0 IPC: 0.0001
TH1 ROB: 4 LSQ: 3 IQ: 0, IPC: 0.0001
TH2 ROB: 4 LSQ: 2 IQ: 0, IPC: 0.0001
TH3 ROB: 105 LSQ: 86 IQ: 96, IPC: 2.1957
EPOCH ENDS
EPOCH STARTS
TH0 ROB: 4 LSQ: 3 IQ: 0 IPC: 0.0001
TH1 ROB: 4 LSQ: 3 IQ: 0, IPC: 0.0001
TH2 ROB: 4 LSQ: 2 IQ: 0, IPC: 0.0001
TH3 ROB: 106 LSQ: 87 IQ: 96, IPC: 2.1957
EPOCH ENDS
EPOCH STARTS
TH0 ROB: 4 LSQ: 3 IQ: 0 IPC: 0.0001
TH1 ROB: 4 LSQ: 3 IQ: 0, IPC: 0.0001
TH2 ROB: 4 LSQ: 2 IQ: 0, IPC: 0.0001
TH3 ROB: 105 LSQ: 87 IQ: 96, IPC: 2.1958
EPOCH ENDS
EPOCH STARTS
TH0 ROB: 4 LSQ: 3 IQ: 0 IPC: 0.0001
TH1 ROB: 4 LSQ: 3 IQ: 0, IPC: 0.0001
TH2 ROB: 4 LSQ: 2 IQ: 0, IPC: 0.0001
TH3 ROB: 105 LSQ: 86 IQ: 96, IPC: 2.1958
EPOCH ENDS
EPOCH STARTS
TH0 ROB: 4 LSQ: 3 IQ: 0 IPC: 0.0001
TH1 ROB: 4 LSQ: 3 IQ: 0, IPC: 0.0001
TH2 ROB: 4 LSQ: 2 IQ: 0, IPC: 0.0001
TH3 ROB: 105 LSQ: 86 IQ: 96, IPC: 2.1958
EPOCH ENDS
EPOCH STARTS
TH0 ROB: 4 LSQ: 3 IQ: 0 IPC: 0.0001
TH1 ROB: 4 LSQ: 3 IQ: 0, IPC: 0.0001
TH2 ROB: 4 LSQ: 2 IQ: 0, IPC: 0.0001
TH3 ROB: 105 LSQ: 86 IQ: 96, IPC: 2.1958
EPOCH ENDS
EPOCH STARTS
TH0 ROB: 4 LSQ: 3 IQ: 0 IPC: 0.0001
TH1 ROB: 4 LSQ: 3 IQ: 0, IPC: 0.0001
TH2 ROB: 4 LSQ: 2 IQ: 0, IPC: 0.0001
TH3 ROB: 105 LSQ: 86 IQ: 96, IPC: 2.1958
EPOCH ENDS
EPOCH STARTS
TH0 ROB: 4 LSQ: 3 IQ: 0 IPC: 0.0001
TH1 ROB: 4 LSQ: 3 IQ: 0, IPC: 0.0001
TH2 ROB: 4 LSQ: 2 IQ: 0, IPC: 0.0001
TH3 ROB: 105 LSQ: 87 IQ: 96, IPC: 2.1958
EPOCH ENDS
EPOCH STARTS
TH0 ROB: 4 LSQ: 3 IQ: 0 IPC: 0.0001
TH1 ROB: 4 LSQ: 3 IQ: 0, IPC: 0.0001
TH2 ROB: 4 LSQ: 2 IQ: 0, IPC: 0.0001
TH3 ROB: 105 LSQ: 86 IQ: 96, IPC: 2.1958
EPOCH ENDS
EPOCH STARTS
TH0 ROB: 4 LSQ: 3 IQ: 0 IPC: 0.0001
TH1 ROB: 4 LSQ: 3 IQ: 0, IPC: 0.0001
TH2 ROB: 4 LSQ: 2 IQ: 0, IPC: 0.0001
TH3 ROB: 105 LSQ: 86 IQ: 96, IPC: 2.1958
EPOCH ENDS
EPOCH STARTS
TH0 ROB: 4 LSQ: 3 IQ: 0 IPC: 0.0001
TH1 ROB: 4 LSQ: 3 IQ: 0, IPC: 0.0001
TH2 ROB: 4 LSQ: 2 IQ: 0, IPC: 0.0001
TH3 ROB: 105 LSQ: 86 IQ: 96, IPC: 2.1958
EPOCH ENDS
EPOCH STARTS
TH0 ROB: 4 LSQ: 3 IQ: 0 IPC: 0.0001
TH1 ROB: 4 LSQ: 3 IQ: 0, IPC: 0.0001
TH2 ROB: 4 LSQ: 2 IQ: 0, IPC: 0.0001
TH3 ROB: 105 LSQ: 87 IQ: 96, IPC: 2.1958
EPOCH ENDS
EPOCH STARTS
TH0 ROB: 4 LSQ: 3 IQ: 0 IPC: 0.0001
TH1 ROB: 4 LSQ: 3 IQ: 0, IPC: 0.0001
TH2 ROB: 4 LSQ: 2 IQ: 0, IPC: 0.0001
TH3 ROB: 105 LSQ: 88 IQ: 96, IPC: 2.1958
EPOCH ENDS
EPOCH STARTS
TH0 ROB: 4 LSQ: 3 IQ: 0 IPC: 0.0001
TH1 ROB: 4 LSQ: 3 IQ: 0, IPC: 0.0001
TH2 ROB: 4 LSQ: 2 IQ: 0, IPC: 0.0001
TH3 ROB: 104 LSQ: 85 IQ: 96, IPC: 2.1958
EPOCH ENDS
EPOCH STARTS
TH0 ROB: 4 LSQ: 3 IQ: 0 IPC: 0.0001
TH1 ROB: 4 LSQ: 3 IQ: 0, IPC: 0.0001
TH2 ROB: 4 LSQ: 2 IQ: 0, IPC: 0.0001
TH3 ROB: 104 LSQ: 85 IQ: 96, IPC: 2.1958
EPOCH ENDS
EPOCH STARTS
TH0 ROB: 4 LSQ: 3 IQ: 0 IPC: 0.0001
TH1 ROB: 4 LSQ: 3 IQ: 0, IPC: 0.0001
TH2 ROB: 4 LSQ: 2 IQ: 0, IPC: 0.0001
TH3 ROB: 105 LSQ: 86 IQ: 96, IPC: 2.1958
EPOCH ENDS
EPOCH STARTS
TH0 ROB: 4 LSQ: 3 IQ: 0 IPC: 0.0001
TH1 ROB: 4 LSQ: 3 IQ: 0, IPC: 0.0001
TH2 ROB: 4 LSQ: 2 IQ: 0, IPC: 0.0001
TH3 ROB: 105 LSQ: 87 IQ: 96, IPC: 2.1958
EPOCH ENDS
EPOCH STARTS
TH0 ROB: 4 LSQ: 3 IQ: 0 IPC: 0.0001
TH1 ROB: 4 LSQ: 3 IQ: 0, IPC: 0.0001
TH2 ROB: 4 LSQ: 2 IQ: 0, IPC: 0.0001
TH3 ROB: 106 LSQ: 87 IQ: 96, IPC: 2.1958
EPOCH ENDS
EPOCH STARTS
TH0 ROB: 4 LSQ: 3 IQ: 0 IPC: 0.0001
TH1 ROB: 4 LSQ: 3 IQ: 0, IPC: 0.0001
TH2 ROB: 4 LSQ: 2 IQ: 0, IPC: 0.0001
TH3 ROB: 104 LSQ: 85 IQ: 96, IPC: 2.1958
EPOCH ENDS
EPOCH STARTS
TH0 ROB: 4 LSQ: 3 IQ: 0 IPC: 0.0001
TH1 ROB: 4 LSQ: 3 IQ: 0, IPC: 0.0001
TH2 ROB: 4 LSQ: 2 IQ: 0, IPC: 0.0001
TH3 ROB: 104 LSQ: 85 IQ: 96, IPC: 2.1958
EPOCH ENDS
EPOCH STARTS
TH0 ROB: 4 LSQ: 3 IQ: 0 IPC: 0.0001
TH1 ROB: 4 LSQ: 3 IQ: 0, IPC: 0.0001
TH2 ROB: 4 LSQ: 2 IQ: 0, IPC: 0.0001
TH3 ROB: 104 LSQ: 85 IQ: 96, IPC: 2.1958
EPOCH ENDS
EPOCH STARTS
TH0 ROB: 4 LSQ: 3 IQ: 0 IPC: 0.0001
TH1 ROB: 4 LSQ: 3 IQ: 0, IPC: 0.0001
TH2 ROB: 4 LSQ: 2 IQ: 0, IPC: 0.0001
TH3 ROB: 105 LSQ: 87 IQ: 96, IPC: 2.1958
EPOCH ENDS
EPOCH STARTS
TH0 ROB: 4 LSQ: 3 IQ: 0 IPC: 0.0001
TH1 ROB: 4 LSQ: 3 IQ: 0, IPC: 0.0001
TH2 ROB: 4 LSQ: 2 IQ: 0, IPC: 0.0001
TH3 ROB: 105 LSQ: 86 IQ: 96, IPC: 2.1958
EPOCH ENDS
EPOCH STARTS
TH0 ROB: 4 LSQ: 3 IQ: 0 IPC: 0.0001
TH1 ROB: 4 LSQ: 3 IQ: 0, IPC: 0.0001
TH2 ROB: 4 LSQ: 2 IQ: 0, IPC: 0.0001
TH3 ROB: 104 LSQ: 85 IQ: 96, IPC: 2.1958
EPOCH ENDS
EPOCH STARTS
TH0 ROB: 4 LSQ: 3 IQ: 0 IPC: 0.0001
TH1 ROB: 4 LSQ: 3 IQ: 0, IPC: 0.0001
TH2 ROB: 4 LSQ: 2 IQ: 0, IPC: 0.0001
TH3 ROB: 104 LSQ: 85 IQ: 96, IPC: 2.1958
EPOCH ENDS
EPOCH STARTS
TH0 ROB: 4 LSQ: 3 IQ: 0 IPC: 0.0001
TH1 ROB: 4 LSQ: 3 IQ: 0, IPC: 0.0001
TH2 ROB: 4 LSQ: 2 IQ: 0, IPC: 0.0001
TH3 ROB: 104 LSQ: 87 IQ: 96, IPC: 2.1958
EPOCH ENDS
EPOCH STARTS
TH0 ROB: 4 LSQ: 3 IQ: 0 IPC: 0.0001
TH1 ROB: 4 LSQ: 3 IQ: 0, IPC: 0.0001
TH2 ROB: 4 LSQ: 2 IQ: 0, IPC: 0.0001
TH3 ROB: 105 LSQ: 87 IQ: 96, IPC: 2.1958
EPOCH ENDS
EPOCH STARTS
TH0 ROB: 4 LSQ: 3 IQ: 0 IPC: 0.0001
TH1 ROB: 4 LSQ: 3 IQ: 0, IPC: 0.0001
TH2 ROB: 4 LSQ: 2 IQ: 0, IPC: 0.0001
TH3 ROB: 105 LSQ: 85 IQ: 96, IPC: 2.1958
EPOCH ENDS
EPOCH STARTS
TH0 ROB: 4 LSQ: 3 IQ: 0 IPC: 0.0001
TH1 ROB: 4 LSQ: 3 IQ: 0, IPC: 0.0001
TH2 ROB: 4 LSQ: 2 IQ: 0, IPC: 0.0001
TH3 ROB: 104 LSQ: 85 IQ: 96, IPC: 2.1958
EPOCH ENDS
EPOCH STARTS
TH0 ROB: 4 LSQ: 3 IQ: 0 IPC: 0.0001
TH1 ROB: 4 LSQ: 3 IQ: 0, IPC: 0.0001
TH2 ROB: 4 LSQ: 2 IQ: 0, IPC: 0.0001
TH3 ROB: 104 LSQ: 85 IQ: 96, IPC: 2.1958
EPOCH ENDS
EPOCH STARTS
TH0 ROB: 4 LSQ: 3 IQ: 0 IPC: 0.0001
TH1 ROB: 4 LSQ: 3 IQ: 0, IPC: 0.0001
TH2 ROB: 4 LSQ: 2 IQ: 0, IPC: 0.0001
TH3 ROB: 104 LSQ: 86 IQ: 96, IPC: 2.1958
EPOCH ENDS
EPOCH STARTS
TH0 ROB: 4 LSQ: 3 IQ: 0 IPC: 0.0001
TH1 ROB: 4 LSQ: 3 IQ: 0, IPC: 0.0001
TH2 ROB: 4 LSQ: 2 IQ: 0, IPC: 0.0001
TH3 ROB: 107 LSQ: 88 IQ: 96, IPC: 2.1958
EPOCH ENDS
EPOCH STARTS
TH0 ROB: 4 LSQ: 3 IQ: 0 IPC: 0.0001
TH1 ROB: 4 LSQ: 3 IQ: 0, IPC: 0.0001
TH2 ROB: 4 LSQ: 2 IQ: 0, IPC: 0.0001
TH3 ROB: 105 LSQ: 86 IQ: 96, IPC: 2.1958
EPOCH ENDS
EPOCH STARTS
TH0 ROB: 4 LSQ: 3 IQ: 0 IPC: 0.0001
TH1 ROB: 4 LSQ: 3 IQ: 0, IPC: 0.0001
TH2 ROB: 4 LSQ: 2 IQ: 0, IPC: 0.0001
TH3 ROB: 105 LSQ: 85 IQ: 96, IPC: 2.1958
EPOCH ENDS
EPOCH STARTS
TH0 ROB: 4 LSQ: 3 IQ: 0 IPC: 0.0001
TH1 ROB: 4 LSQ: 3 IQ: 0, IPC: 0.0001
TH2 ROB: 4 LSQ: 2 IQ: 0, IPC: 0.0001
TH3 ROB: 104 LSQ: 85 IQ: 96, IPC: 2.1958
EPOCH ENDS
EPOCH STARTS
TH0 ROB: 4 LSQ: 3 IQ: 0 IPC: 0.0001
TH1 ROB: 4 LSQ: 3 IQ: 0, IPC: 0.0001
TH2 ROB: 4 LSQ: 2 IQ: 0, IPC: 0.0001
TH3 ROB: 105 LSQ: 87 IQ: 96, IPC: 2.1958
EPOCH ENDS
EPOCH STARTS
TH0 ROB: 4 LSQ: 3 IQ: 0 IPC: 0.0001
TH1 ROB: 4 LSQ: 3 IQ: 0, IPC: 0.0001
TH2 ROB: 4 LSQ: 2 IQ: 0, IPC: 0.0001
TH3 ROB: 105 LSQ: 86 IQ: 96, IPC: 2.1958
EPOCH ENDS
EPOCH STARTS
TH0 ROB: 4 LSQ: 3 IQ: 0 IPC: 0.0001
TH1 ROB: 4 LSQ: 3 IQ: 0, IPC: 0.0001
TH2 ROB: 4 LSQ: 2 IQ: 0, IPC: 0.0001
TH3 ROB: 104 LSQ: 85 IQ: 96, IPC: 2.1958
EPOCH ENDS
EPOCH STARTS
TH0 ROB: 4 LSQ: 3 IQ: 0 IPC: 0.0001
TH1 ROB: 4 LSQ: 3 IQ: 0, IPC: 0.0001
TH2 ROB: 4 LSQ: 2 IQ: 0, IPC: 0.0001
TH3 ROB: 105 LSQ: 86 IQ: 96, IPC: 2.1958
EPOCH ENDS
EPOCH STARTS
TH0 ROB: 4 LSQ: 3 IQ: 0 IPC: 0.0001
TH1 ROB: 4 LSQ: 3 IQ: 0, IPC: 0.0001
TH2 ROB: 4 LSQ: 2 IQ: 0, IPC: 0.0001
TH3 ROB: 105 LSQ: 87 IQ: 96, IPC: 2.1958
EPOCH ENDS
EPOCH STARTS
TH0 ROB: 4 LSQ: 3 IQ: 0 IPC: 0.0001
TH1 ROB: 4 LSQ: 3 IQ: 0, IPC: 0.0001
TH2 ROB: 4 LSQ: 2 IQ: 0, IPC: 0.0001
TH3 ROB: 105 LSQ: 87 IQ: 96, IPC: 2.1958
EPOCH ENDS
EPOCH STARTS
TH0 ROB: 4 LSQ: 3 IQ: 0 IPC: 0.0001
TH1 ROB: 4 LSQ: 3 IQ: 0, IPC: 0.0001
TH2 ROB: 4 LSQ: 2 IQ: 0, IPC: 0.0001
TH3 ROB: 106 LSQ: 87 IQ: 96, IPC: 2.1959
EPOCH ENDS
EPOCH STARTS
TH0 ROB: 4 LSQ: 3 IQ: 0 IPC: 0.0001
TH1 ROB: 4 LSQ: 3 IQ: 0, IPC: 0.0001
TH2 ROB: 4 LSQ: 2 IQ: 0, IPC: 0.0001
TH3 ROB: 104 LSQ: 85 IQ: 96, IPC: 2.1959
EPOCH ENDS
EPOCH STARTS
TH0 ROB: 4 LSQ: 3 IQ: 0 IPC: 0.0001
TH1 ROB: 4 LSQ: 3 IQ: 0, IPC: 0.0001
TH2 ROB: 4 LSQ: 2 IQ: 0, IPC: 0.0001
TH3 ROB: 104 LSQ: 85 IQ: 96, IPC: 2.1959
EPOCH ENDS
EPOCH STARTS
TH0 ROB: 4 LSQ: 3 IQ: 0 IPC: 0.0001
TH1 ROB: 4 LSQ: 3 IQ: 0, IPC: 0.0001
TH2 ROB: 4 LSQ: 2 IQ: 0, IPC: 0.0001
TH3 ROB: 105 LSQ: 87 IQ: 96, IPC: 2.1959
EPOCH ENDS
EPOCH STARTS
TH0 ROB: 4 LSQ: 3 IQ: 0 IPC: 0.0001
TH1 ROB: 4 LSQ: 3 IQ: 0, IPC: 0.0001
TH2 ROB: 4 LSQ: 2 IQ: 0, IPC: 0.0001
TH3 ROB: 106 LSQ: 87 IQ: 96, IPC: 2.1959
EPOCH ENDS
EPOCH STARTS
TH0 ROB: 4 LSQ: 3 IQ: 0 IPC: 0.0001
TH1 ROB: 4 LSQ: 3 IQ: 0, IPC: 0.0001
TH2 ROB: 4 LSQ: 2 IQ: 0, IPC: 0.0001
TH3 ROB: 106 LSQ: 87 IQ: 96, IPC: 2.1959
EPOCH ENDS
EPOCH STARTS
TH0 ROB: 4 LSQ: 3 IQ: 0 IPC: 0.0001
TH1 ROB: 4 LSQ: 3 IQ: 0, IPC: 0.0001
TH2 ROB: 4 LSQ: 2 IQ: 0, IPC: 0.0001
TH3 ROB: 106 LSQ: 87 IQ: 96, IPC: 2.1959
EPOCH ENDS
EPOCH STARTS
TH0 ROB: 4 LSQ: 3 IQ: 0 IPC: 0.0001
TH1 ROB: 4 LSQ: 3 IQ: 0, IPC: 0.0001
TH2 ROB: 4 LSQ: 2 IQ: 0, IPC: 0.0001
TH3 ROB: 104 LSQ: 86 IQ: 96, IPC: 2.1959
EPOCH ENDS
EPOCH STARTS
TH0 ROB: 4 LSQ: 3 IQ: 0 IPC: 0.0001
TH1 ROB: 4 LSQ: 3 IQ: 0, IPC: 0.0001
TH2 ROB: 4 LSQ: 2 IQ: 0, IPC: 0.0001
TH3 ROB: 104 LSQ: 87 IQ: 96, IPC: 2.1959
EPOCH ENDS
EPOCH STARTS
TH0 ROB: 4 LSQ: 3 IQ: 0 IPC: 0.0001
TH1 ROB: 4 LSQ: 3 IQ: 0, IPC: 0.0001
TH2 ROB: 4 LSQ: 2 IQ: 0, IPC: 0.0001
TH3 ROB: 105 LSQ: 86 IQ: 96, IPC: 2.1959
EPOCH ENDS
EPOCH STARTS
TH0 ROB: 4 LSQ: 3 IQ: 0 IPC: 0.0001
TH1 ROB: 4 LSQ: 3 IQ: 0, IPC: 0.0001
TH2 ROB: 4 LSQ: 2 IQ: 0, IPC: 0.0001
TH3 ROB: 105 LSQ: 86 IQ: 96, IPC: 2.1959
EPOCH ENDS
EPOCH STARTS
TH0 ROB: 4 LSQ: 3 IQ: 0 IPC: 0.0001
TH1 ROB: 4 LSQ: 3 IQ: 0, IPC: 0.0001
TH2 ROB: 4 LSQ: 2 IQ: 0, IPC: 0.0001
TH3 ROB: 106 LSQ: 87 IQ: 96, IPC: 2.1959
EPOCH ENDS
EPOCH STARTS
TH0 ROB: 4 LSQ: 3 IQ: 0 IPC: 0.0001
TH1 ROB: 4 LSQ: 3 IQ: 0, IPC: 0.0001
TH2 ROB: 4 LSQ: 2 IQ: 0, IPC: 0.0001
TH3 ROB: 105 LSQ: 87 IQ: 96, IPC: 2.1959
EPOCH ENDS
EPOCH STARTS
TH0 ROB: 4 LSQ: 3 IQ: 0 IPC: 0.0001
TH1 ROB: 4 LSQ: 3 IQ: 0, IPC: 0.0001
TH2 ROB: 4 LSQ: 2 IQ: 0, IPC: 0.0001
TH3 ROB: 105 LSQ: 86 IQ: 96, IPC: 2.1959
EPOCH ENDS
EPOCH STARTS
TH0 ROB: 4 LSQ: 3 IQ: 0 IPC: 0.0001
TH1 ROB: 4 LSQ: 3 IQ: 0, IPC: 0.0001
TH2 ROB: 4 LSQ: 2 IQ: 0, IPC: 0.0001
TH3 ROB: 105 LSQ: 86 IQ: 96, IPC: 2.1959
EPOCH ENDS
EPOCH STARTS
TH0 ROB: 4 LSQ: 3 IQ: 0 IPC: 0.0001
TH1 ROB: 4 LSQ: 3 IQ: 0, IPC: 0.0001
TH2 ROB: 4 LSQ: 2 IQ: 0, IPC: 0.0001
TH3 ROB: 105 LSQ: 86 IQ: 96, IPC: 2.1959
EPOCH ENDS
EPOCH STARTS
TH0 ROB: 4 LSQ: 3 IQ: 0 IPC: 0.0001
TH1 ROB: 4 LSQ: 3 IQ: 0, IPC: 0.0001
TH2 ROB: 4 LSQ: 2 IQ: 0, IPC: 0.0001
TH3 ROB: 105 LSQ: 86 IQ: 96, IPC: 2.1959
EPOCH ENDS
EPOCH STARTS
TH0 ROB: 4 LSQ: 3 IQ: 0 IPC: 0.0001
TH1 ROB: 4 LSQ: 3 IQ: 0, IPC: 0.0001
TH2 ROB: 4 LSQ: 2 IQ: 0, IPC: 0.0001
TH3 ROB: 105 LSQ: 87 IQ: 96, IPC: 2.1959
EPOCH ENDS
EPOCH STARTS
TH0 ROB: 4 LSQ: 3 IQ: 0 IPC: 0.0001
TH1 ROB: 4 LSQ: 3 IQ: 0, IPC: 0.0001
TH2 ROB: 4 LSQ: 2 IQ: 0, IPC: 0.0001
TH3 ROB: 105 LSQ: 86 IQ: 96, IPC: 2.1959
EPOCH ENDS
EPOCH STARTS
TH0 ROB: 4 LSQ: 3 IQ: 0 IPC: 0.0001
TH1 ROB: 4 LSQ: 3 IQ: 0, IPC: 0.0001
TH2 ROB: 4 LSQ: 2 IQ: 0, IPC: 0.0001
TH3 ROB: 105 LSQ: 86 IQ: 96, IPC: 2.1959
EPOCH ENDS
EPOCH STARTS
TH0 ROB: 4 LSQ: 3 IQ: 0 IPC: 0.0001
TH1 ROB: 4 LSQ: 3 IQ: 0, IPC: 0.0001
TH2 ROB: 4 LSQ: 2 IQ: 0, IPC: 0.0001
TH3 ROB: 105 LSQ: 86 IQ: 96, IPC: 2.1959
EPOCH ENDS
EPOCH STARTS
TH0 ROB: 4 LSQ: 3 IQ: 0 IPC: 0.0001
TH1 ROB: 4 LSQ: 3 IQ: 0, IPC: 0.0001
TH2 ROB: 4 LSQ: 2 IQ: 0, IPC: 0.0001
TH3 ROB: 105 LSQ: 87 IQ: 96, IPC: 2.1959
EPOCH ENDS
EPOCH STARTS
TH0 ROB: 4 LSQ: 3 IQ: 0 IPC: 0.0001
TH1 ROB: 4 LSQ: 3 IQ: 0, IPC: 0.0001
TH2 ROB: 4 LSQ: 2 IQ: 0, IPC: 0.0001
TH3 ROB: 105 LSQ: 88 IQ: 96, IPC: 2.1959
EPOCH ENDS
EPOCH STARTS
TH0 ROB: 4 LSQ: 3 IQ: 0 IPC: 0.0001
TH1 ROB: 4 LSQ: 3 IQ: 0, IPC: 0.0001
TH2 ROB: 4 LSQ: 2 IQ: 0, IPC: 0.0001
TH3 ROB: 104 LSQ: 85 IQ: 96, IPC: 2.1959
EPOCH ENDS
EPOCH STARTS
TH0 ROB: 4 LSQ: 3 IQ: 0 IPC: 0.0001
TH1 ROB: 4 LSQ: 3 IQ: 0, IPC: 0.0001
TH2 ROB: 4 LSQ: 2 IQ: 0, IPC: 0.0001
TH3 ROB: 104 LSQ: 85 IQ: 96, IPC: 2.1959
EPOCH ENDS
EPOCH STARTS
TH0 ROB: 4 LSQ: 3 IQ: 0 IPC: 0.0001
TH1 ROB: 4 LSQ: 3 IQ: 0, IPC: 0.0001
TH2 ROB: 4 LSQ: 2 IQ: 0, IPC: 0.0001
TH3 ROB: 105 LSQ: 86 IQ: 96, IPC: 2.1959
EPOCH ENDS
EPOCH STARTS
TH0 ROB: 4 LSQ: 3 IQ: 0 IPC: 0.0001
TH1 ROB: 4 LSQ: 3 IQ: 0, IPC: 0.0001
TH2 ROB: 4 LSQ: 2 IQ: 0, IPC: 0.0001
TH3 ROB: 105 LSQ: 87 IQ: 96, IPC: 2.1959
EPOCH ENDS
EPOCH STARTS
TH0 ROB: 4 LSQ: 3 IQ: 0 IPC: 0.0001
TH1 ROB: 4 LSQ: 3 IQ: 0, IPC: 0.0001
TH2 ROB: 4 LSQ: 2 IQ: 0, IPC: 0.0001
TH3 ROB: 106 LSQ: 87 IQ: 96, IPC: 2.1959
EPOCH ENDS
EPOCH STARTS
TH0 ROB: 4 LSQ: 3 IQ: 0 IPC: 0.0001
TH1 ROB: 4 LSQ: 3 IQ: 0, IPC: 0.0001
TH2 ROB: 4 LSQ: 2 IQ: 0, IPC: 0.0001
TH3 ROB: 104 LSQ: 85 IQ: 96, IPC: 2.1959
EPOCH ENDS
EPOCH STARTS
TH0 ROB: 4 LSQ: 3 IQ: 0 IPC: 0.0001
TH1 ROB: 4 LSQ: 3 IQ: 0, IPC: 0.0001
TH2 ROB: 4 LSQ: 2 IQ: 0, IPC: 0.0001
TH3 ROB: 104 LSQ: 85 IQ: 96, IPC: 2.1959
EPOCH ENDS
EPOCH STARTS
TH0 ROB: 4 LSQ: 3 IQ: 0 IPC: 0.0001
TH1 ROB: 4 LSQ: 3 IQ: 0, IPC: 0.0001
TH2 ROB: 4 LSQ: 2 IQ: 0, IPC: 0.0001
TH3 ROB: 104 LSQ: 85 IQ: 96, IPC: 2.1959
EPOCH ENDS
EPOCH STARTS
TH0 ROB: 4 LSQ: 3 IQ: 0 IPC: 0.0001
TH1 ROB: 4 LSQ: 3 IQ: 0, IPC: 0.0001
TH2 ROB: 4 LSQ: 2 IQ: 0, IPC: 0.0001
TH3 ROB: 105 LSQ: 87 IQ: 96, IPC: 2.1959
EPOCH ENDS
EPOCH STARTS
TH0 ROB: 4 LSQ: 3 IQ: 0 IPC: 0.0001
TH1 ROB: 4 LSQ: 3 IQ: 0, IPC: 0.0001
TH2 ROB: 4 LSQ: 2 IQ: 0, IPC: 0.0001
TH3 ROB: 105 LSQ: 86 IQ: 96, IPC: 2.1959
EPOCH ENDS
EPOCH STARTS
TH0 ROB: 4 LSQ: 3 IQ: 0 IPC: 0.0001
TH1 ROB: 4 LSQ: 3 IQ: 0, IPC: 0.0001
TH2 ROB: 4 LSQ: 2 IQ: 0, IPC: 0.0001
TH3 ROB: 104 LSQ: 85 IQ: 96, IPC: 2.1959
EPOCH ENDS
EPOCH STARTS
TH0 ROB: 4 LSQ: 3 IQ: 0 IPC: 0.0001
TH1 ROB: 4 LSQ: 3 IQ: 0, IPC: 0.0001
TH2 ROB: 4 LSQ: 2 IQ: 0, IPC: 0.0001
TH3 ROB: 104 LSQ: 85 IQ: 96, IPC: 2.1959
EPOCH ENDS
EPOCH STARTS
TH0 ROB: 4 LSQ: 3 IQ: 0 IPC: 0.0001
TH1 ROB: 4 LSQ: 3 IQ: 0, IPC: 0.0001
TH2 ROB: 4 LSQ: 2 IQ: 0, IPC: 0.0001
TH3 ROB: 104 LSQ: 87 IQ: 96, IPC: 2.1959
EPOCH ENDS
EPOCH STARTS
TH0 ROB: 4 LSQ: 3 IQ: 0 IPC: 0.0001
TH1 ROB: 4 LSQ: 3 IQ: 0, IPC: 0.0001
TH2 ROB: 4 LSQ: 2 IQ: 0, IPC: 0.0001
TH3 ROB: 105 LSQ: 87 IQ: 96, IPC: 2.1959
EPOCH ENDS
EPOCH STARTS
TH0 ROB: 4 LSQ: 3 IQ: 0 IPC: 0.0001
TH1 ROB: 4 LSQ: 3 IQ: 0, IPC: 0.0001
TH2 ROB: 4 LSQ: 2 IQ: 0, IPC: 0.0001
TH3 ROB: 105 LSQ: 85 IQ: 96, IPC: 2.1959
EPOCH ENDS
EPOCH STARTS
TH0 ROB: 4 LSQ: 3 IQ: 0 IPC: 0.0001
TH1 ROB: 4 LSQ: 3 IQ: 0, IPC: 0.0001
TH2 ROB: 4 LSQ: 2 IQ: 0, IPC: 0.0001
TH3 ROB: 104 LSQ: 85 IQ: 96, IPC: 2.1959
EPOCH ENDS
EPOCH STARTS
TH0 ROB: 4 LSQ: 3 IQ: 0 IPC: 0.0001
TH1 ROB: 4 LSQ: 3 IQ: 0, IPC: 0.0001
TH2 ROB: 4 LSQ: 2 IQ: 0, IPC: 0.0001
TH3 ROB: 104 LSQ: 85 IQ: 96, IPC: 2.1959
EPOCH ENDS
EPOCH STARTS
TH0 ROB: 4 LSQ: 3 IQ: 0 IPC: 0.0001
TH1 ROB: 4 LSQ: 3 IQ: 0, IPC: 0.0001
TH2 ROB: 4 LSQ: 2 IQ: 0, IPC: 0.0001
TH3 ROB: 104 LSQ: 86 IQ: 96, IPC: 2.1959
EPOCH ENDS
EPOCH STARTS
TH0 ROB: 4 LSQ: 3 IQ: 0 IPC: 0.0001
TH1 ROB: 4 LSQ: 3 IQ: 0, IPC: 0.0001
TH2 ROB: 4 LSQ: 2 IQ: 0, IPC: 0.0001
TH3 ROB: 107 LSQ: 88 IQ: 96, IPC: 2.1959
EPOCH ENDS
EPOCH STARTS
TH0 ROB: 4 LSQ: 3 IQ: 0 IPC: 0.0001
TH1 ROB: 4 LSQ: 3 IQ: 0, IPC: 0.0001
TH2 ROB: 4 LSQ: 2 IQ: 0, IPC: 0.0001
TH3 ROB: 105 LSQ: 86 IQ: 96, IPC: 2.1959
EPOCH ENDS
EPOCH STARTS
TH0 ROB: 4 LSQ: 3 IQ: 0 IPC: 0.0001
TH1 ROB: 4 LSQ: 3 IQ: 0, IPC: 0.0001
TH2 ROB: 4 LSQ: 2 IQ: 0, IPC: 0.0001
TH3 ROB: 105 LSQ: 85 IQ: 96, IPC: 2.1959
EPOCH ENDS
EPOCH STARTS
TH0 ROB: 4 LSQ: 3 IQ: 0 IPC: 0.0001
TH1 ROB: 4 LSQ: 3 IQ: 0, IPC: 0.0001
TH2 ROB: 4 LSQ: 2 IQ: 0, IPC: 0.0000
TH3 ROB: 104 LSQ: 85 IQ: 96, IPC: 2.1959
EPOCH ENDS
EPOCH STARTS
TH0 ROB: 4 LSQ: 3 IQ: 0 IPC: 0.0001
TH1 ROB: 4 LSQ: 3 IQ: 0, IPC: 0.0001
TH2 ROB: 4 LSQ: 2 IQ: 0, IPC: 0.0000
TH3 ROB: 105 LSQ: 87 IQ: 96, IPC: 2.1959
EPOCH ENDS
EPOCH STARTS
TH0 ROB: 4 LSQ: 3 IQ: 0 IPC: 0.0001
TH1 ROB: 4 LSQ: 3 IQ: 0, IPC: 0.0001
TH2 ROB: 4 LSQ: 2 IQ: 0, IPC: 0.0000
TH3 ROB: 105 LSQ: 86 IQ: 96, IPC: 2.1959
EPOCH ENDS
EPOCH STARTS
TH0 ROB: 4 LSQ: 3 IQ: 0 IPC: 0.0001
TH1 ROB: 4 LSQ: 3 IQ: 0, IPC: 0.0001
TH2 ROB: 4 LSQ: 2 IQ: 0, IPC: 0.0000
TH3 ROB: 104 LSQ: 85 IQ: 96, IPC: 2.1959
EPOCH ENDS
EPOCH STARTS
TH0 ROB: 4 LSQ: 3 IQ: 0 IPC: 0.0001
TH1 ROB: 4 LSQ: 3 IQ: 0, IPC: 0.0001
TH2 ROB: 4 LSQ: 2 IQ: 0, IPC: 0.0000
TH3 ROB: 105 LSQ: 86 IQ: 96, IPC: 2.1959
EPOCH ENDS
EPOCH STARTS
TH0 ROB: 4 LSQ: 3 IQ: 0 IPC: 0.0001
TH1 ROB: 4 LSQ: 3 IQ: 0, IPC: 0.0001
TH2 ROB: 4 LSQ: 2 IQ: 0, IPC: 0.0000
TH3 ROB: 105 LSQ: 87 IQ: 96, IPC: 2.1959
EPOCH ENDS
EPOCH STARTS
TH0 ROB: 4 LSQ: 3 IQ: 0 IPC: 0.0001
TH1 ROB: 4 LSQ: 3 IQ: 0, IPC: 0.0001
TH2 ROB: 4 LSQ: 2 IQ: 0, IPC: 0.0000
TH3 ROB: 105 LSQ: 87 IQ: 96, IPC: 2.1959
EPOCH ENDS
EPOCH STARTS
TH0 ROB: 4 LSQ: 3 IQ: 0 IPC: 0.0001
TH1 ROB: 4 LSQ: 3 IQ: 0, IPC: 0.0001
TH2 ROB: 4 LSQ: 2 IQ: 0, IPC: 0.0000
TH3 ROB: 106 LSQ: 87 IQ: 96, IPC: 2.1959
EPOCH ENDS
EPOCH STARTS
TH0 ROB: 4 LSQ: 3 IQ: 0 IPC: 0.0001
TH1 ROB: 4 LSQ: 3 IQ: 0, IPC: 0.0001
TH2 ROB: 4 LSQ: 2 IQ: 0, IPC: 0.0000
TH3 ROB: 104 LSQ: 85 IQ: 96, IPC: 2.1959
EPOCH ENDS
EPOCH STARTS
TH0 ROB: 4 LSQ: 3 IQ: 0 IPC: 0.0001
TH1 ROB: 4 LSQ: 3 IQ: 0, IPC: 0.0001
TH2 ROB: 4 LSQ: 2 IQ: 0, IPC: 0.0000
TH3 ROB: 104 LSQ: 85 IQ: 96, IPC: 2.1959
EPOCH ENDS
EPOCH STARTS
TH0 ROB: 4 LSQ: 3 IQ: 0 IPC: 0.0001
TH1 ROB: 4 LSQ: 3 IQ: 0, IPC: 0.0001
TH2 ROB: 4 LSQ: 2 IQ: 0, IPC: 0.0000
TH3 ROB: 105 LSQ: 87 IQ: 96, IPC: 2.1959
EPOCH ENDS
EPOCH STARTS
TH0 ROB: 4 LSQ: 3 IQ: 0 IPC: 0.0001
TH1 ROB: 4 LSQ: 3 IQ: 0, IPC: 0.0001
TH2 ROB: 4 LSQ: 2 IQ: 0, IPC: 0.0000
TH3 ROB: 106 LSQ: 87 IQ: 96, IPC: 2.1959
EPOCH ENDS
EPOCH STARTS
TH0 ROB: 4 LSQ: 3 IQ: 0 IPC: 0.0001
TH1 ROB: 4 LSQ: 3 IQ: 0, IPC: 0.0001
TH2 ROB: 4 LSQ: 2 IQ: 0, IPC: 0.0000
TH3 ROB: 106 LSQ: 87 IQ: 96, IPC: 2.1959
EPOCH ENDS
EPOCH STARTS
TH0 ROB: 4 LSQ: 3 IQ: 0 IPC: 0.0001
TH1 ROB: 4 LSQ: 3 IQ: 0, IPC: 0.0001
TH2 ROB: 4 LSQ: 2 IQ: 0, IPC: 0.0000
TH3 ROB: 106 LSQ: 87 IQ: 96, IPC: 2.1959
EPOCH ENDS
EPOCH STARTS
TH0 ROB: 4 LSQ: 3 IQ: 0 IPC: 0.0001
TH1 ROB: 4 LSQ: 3 IQ: 0, IPC: 0.0001
TH2 ROB: 4 LSQ: 2 IQ: 0, IPC: 0.0000
TH3 ROB: 104 LSQ: 86 IQ: 96, IPC: 2.1959
EPOCH ENDS
EPOCH STARTS
TH0 ROB: 4 LSQ: 3 IQ: 0 IPC: 0.0001
TH1 ROB: 4 LSQ: 3 IQ: 0, IPC: 0.0001
TH2 ROB: 4 LSQ: 2 IQ: 0, IPC: 0.0000
TH3 ROB: 104 LSQ: 87 IQ: 96, IPC: 2.1959
EPOCH ENDS
EPOCH STARTS
TH0 ROB: 4 LSQ: 3 IQ: 0 IPC: 0.0001
TH1 ROB: 4 LSQ: 3 IQ: 0, IPC: 0.0001
TH2 ROB: 4 LSQ: 2 IQ: 0, IPC: 0.0000
TH3 ROB: 105 LSQ: 86 IQ: 96, IPC: 2.1959
EPOCH ENDS
EPOCH STARTS
TH0 ROB: 4 LSQ: 3 IQ: 0 IPC: 0.0001
TH1 ROB: 4 LSQ: 3 IQ: 0, IPC: 0.0001
TH2 ROB: 4 LSQ: 2 IQ: 0, IPC: 0.0000
TH3 ROB: 105 LSQ: 86 IQ: 96, IPC: 2.1959
EPOCH ENDS
EPOCH STARTS
TH0 ROB: 4 LSQ: 3 IQ: 0 IPC: 0.0001
TH1 ROB: 4 LSQ: 3 IQ: 0, IPC: 0.0001
TH2 ROB: 4 LSQ: 2 IQ: 0, IPC: 0.0000
TH3 ROB: 106 LSQ: 87 IQ: 96, IPC: 2.1959
EPOCH ENDS
EPOCH STARTS
TH0 ROB: 4 LSQ: 3 IQ: 0 IPC: 0.0001
TH1 ROB: 4 LSQ: 3 IQ: 0, IPC: 0.0001
TH2 ROB: 4 LSQ: 2 IQ: 0, IPC: 0.0000
TH3 ROB: 105 LSQ: 87 IQ: 96, IPC: 2.1959
EPOCH ENDS
EPOCH STARTS
TH0 ROB: 4 LSQ: 3 IQ: 0 IPC: 0.0001
TH1 ROB: 4 LSQ: 3 IQ: 0, IPC: 0.0001
TH2 ROB: 4 LSQ: 2 IQ: 0, IPC: 0.0000
TH3 ROB: 105 LSQ: 86 IQ: 96, IPC: 2.1959
EPOCH ENDS
EPOCH STARTS
TH0 ROB: 4 LSQ: 3 IQ: 0 IPC: 0.0001
TH1 ROB: 4 LSQ: 3 IQ: 0, IPC: 0.0001
TH2 ROB: 4 LSQ: 2 IQ: 0, IPC: 0.0000
TH3 ROB: 105 LSQ: 86 IQ: 96, IPC: 2.1959
EPOCH ENDS
EPOCH STARTS
TH0 ROB: 4 LSQ: 3 IQ: 0 IPC: 0.0001
TH1 ROB: 4 LSQ: 3 IQ: 0, IPC: 0.0001
TH2 ROB: 4 LSQ: 2 IQ: 0, IPC: 0.0000
TH3 ROB: 105 LSQ: 86 IQ: 96, IPC: 2.1959
EPOCH ENDS
EPOCH STARTS
TH0 ROB: 4 LSQ: 3 IQ: 0 IPC: 0.0001
TH1 ROB: 4 LSQ: 3 IQ: 0, IPC: 0.0001
TH2 ROB: 4 LSQ: 2 IQ: 0, IPC: 0.0000
TH3 ROB: 105 LSQ: 86 IQ: 96, IPC: 2.1959
EPOCH ENDS
EPOCH STARTS
TH0 ROB: 4 LSQ: 3 IQ: 0 IPC: 0.0001
TH1 ROB: 4 LSQ: 3 IQ: 0, IPC: 0.0001
TH2 ROB: 4 LSQ: 2 IQ: 0, IPC: 0.0000
TH3 ROB: 105 LSQ: 87 IQ: 96, IPC: 2.1959
EPOCH ENDS
EPOCH STARTS
TH0 ROB: 4 LSQ: 3 IQ: 0 IPC: 0.0001
TH1 ROB: 4 LSQ: 3 IQ: 0, IPC: 0.0001
TH2 ROB: 4 LSQ: 2 IQ: 0, IPC: 0.0000
TH3 ROB: 105 LSQ: 86 IQ: 96, IPC: 2.1959
EPOCH ENDS
EPOCH STARTS
TH0 ROB: 4 LSQ: 3 IQ: 0 IPC: 0.0001
TH1 ROB: 4 LSQ: 3 IQ: 0, IPC: 0.0001
TH2 ROB: 4 LSQ: 2 IQ: 0, IPC: 0.0000
TH3 ROB: 105 LSQ: 86 IQ: 96, IPC: 2.1959
EPOCH ENDS
EPOCH STARTS
TH0 ROB: 4 LSQ: 3 IQ: 0 IPC: 0.0001
TH1 ROB: 4 LSQ: 3 IQ: 0, IPC: 0.0001
TH2 ROB: 4 LSQ: 2 IQ: 0, IPC: 0.0000
TH3 ROB: 105 LSQ: 86 IQ: 96, IPC: 2.1959
EPOCH ENDS
EPOCH STARTS
TH0 ROB: 4 LSQ: 3 IQ: 0 IPC: 0.0001
TH1 ROB: 4 LSQ: 3 IQ: 0, IPC: 0.0001
TH2 ROB: 4 LSQ: 2 IQ: 0, IPC: 0.0000
TH3 ROB: 105 LSQ: 87 IQ: 96, IPC: 2.1959
EPOCH ENDS
EPOCH STARTS
TH0 ROB: 4 LSQ: 3 IQ: 0 IPC: 0.0001
TH1 ROB: 4 LSQ: 3 IQ: 0, IPC: 0.0001
TH2 ROB: 4 LSQ: 2 IQ: 0, IPC: 0.0000
TH3 ROB: 105 LSQ: 88 IQ: 96, IPC: 2.1959
EPOCH ENDS
EPOCH STARTS
TH0 ROB: 4 LSQ: 3 IQ: 0 IPC: 0.0001
TH1 ROB: 4 LSQ: 3 IQ: 0, IPC: 0.0001
TH2 ROB: 4 LSQ: 2 IQ: 0, IPC: 0.0000
TH3 ROB: 104 LSQ: 85 IQ: 96, IPC: 2.1959
EPOCH ENDS
EPOCH STARTS
TH0 ROB: 4 LSQ: 3 IQ: 0 IPC: 0.0001
TH1 ROB: 4 LSQ: 3 IQ: 0, IPC: 0.0001
TH2 ROB: 4 LSQ: 2 IQ: 0, IPC: 0.0000
TH3 ROB: 104 LSQ: 85 IQ: 96, IPC: 2.1959
EPOCH ENDS
EPOCH STARTS
TH0 ROB: 4 LSQ: 3 IQ: 0 IPC: 0.0001
TH1 ROB: 4 LSQ: 3 IQ: 0, IPC: 0.0001
TH2 ROB: 4 LSQ: 2 IQ: 0, IPC: 0.0000
TH3 ROB: 105 LSQ: 86 IQ: 96, IPC: 2.1959
EPOCH ENDS
EPOCH STARTS
TH0 ROB: 4 LSQ: 3 IQ: 0 IPC: 0.0001
TH1 ROB: 4 LSQ: 3 IQ: 0, IPC: 0.0001
TH2 ROB: 4 LSQ: 2 IQ: 0, IPC: 0.0000
TH3 ROB: 105 LSQ: 87 IQ: 96, IPC: 2.1959
EPOCH ENDS
EPOCH STARTS
TH0 ROB: 4 LSQ: 3 IQ: 0 IPC: 0.0001
TH1 ROB: 4 LSQ: 3 IQ: 0, IPC: 0.0000
TH2 ROB: 4 LSQ: 2 IQ: 0, IPC: 0.0000
TH3 ROB: 106 LSQ: 87 IQ: 96, IPC: 2.1959
EPOCH ENDS
EPOCH STARTS
TH0 ROB: 4 LSQ: 3 IQ: 0 IPC: 0.0001
TH1 ROB: 4 LSQ: 3 IQ: 0, IPC: 0.0000
TH2 ROB: 4 LSQ: 2 IQ: 0, IPC: 0.0000
TH3 ROB: 104 LSQ: 85 IQ: 96, IPC: 2.1959
EPOCH ENDS
EPOCH STARTS
TH0 ROB: 4 LSQ: 3 IQ: 0 IPC: 0.0001
TH1 ROB: 4 LSQ: 3 IQ: 0, IPC: 0.0000
TH2 ROB: 4 LSQ: 2 IQ: 0, IPC: 0.0000
TH3 ROB: 104 LSQ: 85 IQ: 96, IPC: 2.1959
EPOCH ENDS
EPOCH STARTS
TH0 ROB: 4 LSQ: 3 IQ: 0 IPC: 0.0001
TH1 ROB: 4 LSQ: 3 IQ: 0, IPC: 0.0000
TH2 ROB: 4 LSQ: 2 IQ: 0, IPC: 0.0000
TH3 ROB: 104 LSQ: 85 IQ: 96, IPC: 2.1959
EPOCH ENDS
EPOCH STARTS
TH0 ROB: 4 LSQ: 3 IQ: 0 IPC: 0.0001
TH1 ROB: 4 LSQ: 3 IQ: 0, IPC: 0.0000
TH2 ROB: 4 LSQ: 2 IQ: 0, IPC: 0.0000
TH3 ROB: 105 LSQ: 87 IQ: 96, IPC: 2.1959
EPOCH ENDS
EPOCH STARTS
TH0 ROB: 4 LSQ: 3 IQ: 0 IPC: 0.0001
TH1 ROB: 4 LSQ: 3 IQ: 0, IPC: 0.0000
TH2 ROB: 4 LSQ: 2 IQ: 0, IPC: 0.0000
TH3 ROB: 105 LSQ: 86 IQ: 96, IPC: 2.1959
EPOCH ENDS
EPOCH STARTS
TH0 ROB: 4 LSQ: 3 IQ: 0 IPC: 0.0001
TH1 ROB: 4 LSQ: 3 IQ: 0, IPC: 0.0000
TH2 ROB: 4 LSQ: 2 IQ: 0, IPC: 0.0000
TH3 ROB: 104 LSQ: 85 IQ: 96, IPC: 2.1959
EPOCH ENDS
EPOCH STARTS
TH0 ROB: 4 LSQ: 3 IQ: 0 IPC: 0.0001
TH1 ROB: 4 LSQ: 3 IQ: 0, IPC: 0.0000
TH2 ROB: 4 LSQ: 2 IQ: 0, IPC: 0.0000
TH3 ROB: 104 LSQ: 85 IQ: 96, IPC: 2.1959
EPOCH ENDS
EPOCH STARTS
TH0 ROB: 4 LSQ: 3 IQ: 0 IPC: 0.0001
TH1 ROB: 4 LSQ: 3 IQ: 0, IPC: 0.0000
TH2 ROB: 4 LSQ: 2 IQ: 0, IPC: 0.0000
TH3 ROB: 104 LSQ: 87 IQ: 96, IPC: 2.1959
EPOCH ENDS
EPOCH STARTS
TH0 ROB: 4 LSQ: 3 IQ: 0 IPC: 0.0001
TH1 ROB: 4 LSQ: 3 IQ: 0, IPC: 0.0000
TH2 ROB: 4 LSQ: 2 IQ: 0, IPC: 0.0000
TH3 ROB: 105 LSQ: 87 IQ: 96, IPC: 2.1959
EPOCH ENDS
EPOCH STARTS
TH0 ROB: 4 LSQ: 3 IQ: 0 IPC: 0.0001
TH1 ROB: 4 LSQ: 3 IQ: 0, IPC: 0.0000
TH2 ROB: 4 LSQ: 2 IQ: 0, IPC: 0.0000
TH3 ROB: 105 LSQ: 85 IQ: 96, IPC: 2.1959
EPOCH ENDS
EPOCH STARTS
TH0 ROB: 4 LSQ: 3 IQ: 0 IPC: 0.0001
TH1 ROB: 4 LSQ: 3 IQ: 0, IPC: 0.0000
TH2 ROB: 4 LSQ: 2 IQ: 0, IPC: 0.0000
TH3 ROB: 104 LSQ: 85 IQ: 96, IPC: 2.1959
EPOCH ENDS
EPOCH STARTS
TH0 ROB: 4 LSQ: 3 IQ: 0 IPC: 0.0001
TH1 ROB: 4 LSQ: 3 IQ: 0, IPC: 0.0000
TH2 ROB: 4 LSQ: 2 IQ: 0, IPC: 0.0000
TH3 ROB: 104 LSQ: 85 IQ: 96, IPC: 2.1959
EPOCH ENDS
EPOCH STARTS
TH0 ROB: 4 LSQ: 3 IQ: 0 IPC: 0.0001
TH1 ROB: 4 LSQ: 3 IQ: 0, IPC: 0.0000
TH2 ROB: 4 LSQ: 2 IQ: 0, IPC: 0.0000
TH3 ROB: 104 LSQ: 86 IQ: 96, IPC: 2.1959
EPOCH ENDS
EPOCH STARTS
TH0 ROB: 4 LSQ: 3 IQ: 0 IPC: 0.0001
TH1 ROB: 4 LSQ: 3 IQ: 0, IPC: 0.0000
TH2 ROB: 4 LSQ: 2 IQ: 0, IPC: 0.0000
TH3 ROB: 107 LSQ: 88 IQ: 96, IPC: 2.1959
EPOCH ENDS
EPOCH STARTS
TH0 ROB: 4 LSQ: 3 IQ: 0 IPC: 0.0001
TH1 ROB: 4 LSQ: 3 IQ: 0, IPC: 0.0000
TH2 ROB: 4 LSQ: 2 IQ: 0, IPC: 0.0000
TH3 ROB: 105 LSQ: 86 IQ: 96, IPC: 2.1959
EPOCH ENDS
EPOCH STARTS
TH0 ROB: 4 LSQ: 3 IQ: 0 IPC: 0.0001
TH1 ROB: 4 LSQ: 3 IQ: 0, IPC: 0.0000
TH2 ROB: 4 LSQ: 2 IQ: 0, IPC: 0.0000
TH3 ROB: 105 LSQ: 85 IQ: 96, IPC: 2.1959
EPOCH ENDS
EPOCH STARTS
TH0 ROB: 4 LSQ: 3 IQ: 0 IPC: 0.0001
TH1 ROB: 4 LSQ: 3 IQ: 0, IPC: 0.0000
TH2 ROB: 4 LSQ: 2 IQ: 0, IPC: 0.0000
TH3 ROB: 104 LSQ: 85 IQ: 96, IPC: 2.1959
EPOCH ENDS
EPOCH STARTS
TH0 ROB: 4 LSQ: 3 IQ: 0 IPC: 0.0001
TH1 ROB: 4 LSQ: 3 IQ: 0, IPC: 0.0000
TH2 ROB: 4 LSQ: 2 IQ: 0, IPC: 0.0000
TH3 ROB: 105 LSQ: 87 IQ: 96, IPC: 2.1959
EPOCH ENDS
EPOCH STARTS
TH0 ROB: 4 LSQ: 3 IQ: 0 IPC: 0.0001
TH1 ROB: 4 LSQ: 3 IQ: 0, IPC: 0.0000
TH2 ROB: 4 LSQ: 2 IQ: 0, IPC: 0.0000
TH3 ROB: 105 LSQ: 86 IQ: 96, IPC: 2.1959
EPOCH ENDS
EPOCH STARTS
TH0 ROB: 4 LSQ: 3 IQ: 0 IPC: 0.0001
TH1 ROB: 4 LSQ: 3 IQ: 0, IPC: 0.0000
TH2 ROB: 4 LSQ: 2 IQ: 0, IPC: 0.0000
TH3 ROB: 104 LSQ: 85 IQ: 96, IPC: 2.1959
EPOCH ENDS
EPOCH STARTS
TH0 ROB: 4 LSQ: 3 IQ: 0 IPC: 0.0001
TH1 ROB: 4 LSQ: 3 IQ: 0, IPC: 0.0000
TH2 ROB: 4 LSQ: 2 IQ: 0, IPC: 0.0000
TH3 ROB: 105 LSQ: 86 IQ: 96, IPC: 2.1959
EPOCH ENDS
EPOCH STARTS
TH0 ROB: 4 LSQ: 3 IQ: 0 IPC: 0.0001
TH1 ROB: 4 LSQ: 3 IQ: 0, IPC: 0.0000
TH2 ROB: 4 LSQ: 2 IQ: 0, IPC: 0.0000
TH3 ROB: 105 LSQ: 87 IQ: 96, IPC: 2.1959
EPOCH ENDS
EPOCH STARTS
TH0 ROB: 4 LSQ: 3 IQ: 0 IPC: 0.0001
TH1 ROB: 4 LSQ: 3 IQ: 0, IPC: 0.0000
TH2 ROB: 4 LSQ: 2 IQ: 0, IPC: 0.0000
TH3 ROB: 105 LSQ: 87 IQ: 96, IPC: 2.1959
EPOCH ENDS
EPOCH STARTS
TH0 ROB: 4 LSQ: 3 IQ: 0 IPC: 0.0001
TH1 ROB: 4 LSQ: 3 IQ: 0, IPC: 0.0000
TH2 ROB: 4 LSQ: 2 IQ: 0, IPC: 0.0000
TH3 ROB: 106 LSQ: 87 IQ: 96, IPC: 2.1960
EPOCH ENDS
EPOCH STARTS
TH0 ROB: 4 LSQ: 3 IQ: 0 IPC: 0.0001
TH1 ROB: 4 LSQ: 3 IQ: 0, IPC: 0.0000
TH2 ROB: 4 LSQ: 2 IQ: 0, IPC: 0.0000
TH3 ROB: 104 LSQ: 85 IQ: 96, IPC: 2.1960
EPOCH ENDS
EPOCH STARTS
TH0 ROB: 4 LSQ: 3 IQ: 0 IPC: 0.0001
TH1 ROB: 4 LSQ: 3 IQ: 0, IPC: 0.0000
TH2 ROB: 4 LSQ: 2 IQ: 0, IPC: 0.0000
TH3 ROB: 104 LSQ: 85 IQ: 96, IPC: 2.1960
EPOCH ENDS
EPOCH STARTS
TH0 ROB: 4 LSQ: 3 IQ: 0 IPC: 0.0001
TH1 ROB: 4 LSQ: 3 IQ: 0, IPC: 0.0000
TH2 ROB: 4 LSQ: 2 IQ: 0, IPC: 0.0000
TH3 ROB: 105 LSQ: 87 IQ: 96, IPC: 2.1960
EPOCH ENDS
EPOCH STARTS
TH0 ROB: 4 LSQ: 3 IQ: 0 IPC: 0.0001
TH1 ROB: 4 LSQ: 3 IQ: 0, IPC: 0.0000
TH2 ROB: 4 LSQ: 2 IQ: 0, IPC: 0.0000
TH3 ROB: 106 LSQ: 87 IQ: 96, IPC: 2.1960
EPOCH ENDS
EPOCH STARTS
TH0 ROB: 4 LSQ: 3 IQ: 0 IPC: 0.0001
TH1 ROB: 4 LSQ: 3 IQ: 0, IPC: 0.0000
TH2 ROB: 4 LSQ: 2 IQ: 0, IPC: 0.0000
TH3 ROB: 106 LSQ: 87 IQ: 96, IPC: 2.1960
EPOCH ENDS
EPOCH STARTS
TH0 ROB: 4 LSQ: 3 IQ: 0 IPC: 0.0001
TH1 ROB: 4 LSQ: 3 IQ: 0, IPC: 0.0000
TH2 ROB: 4 LSQ: 2 IQ: 0, IPC: 0.0000
TH3 ROB: 106 LSQ: 87 IQ: 96, IPC: 2.1960
EPOCH ENDS
EPOCH STARTS
TH0 ROB: 4 LSQ: 3 IQ: 0 IPC: 0.0000
TH1 ROB: 4 LSQ: 3 IQ: 0, IPC: 0.0000
TH2 ROB: 4 LSQ: 2 IQ: 0, IPC: 0.0000
TH3 ROB: 104 LSQ: 86 IQ: 96, IPC: 2.1960
EPOCH ENDS
EPOCH STARTS
TH0 ROB: 4 LSQ: 3 IQ: 0 IPC: 0.0000
TH1 ROB: 4 LSQ: 3 IQ: 0, IPC: 0.0000
TH2 ROB: 4 LSQ: 2 IQ: 0, IPC: 0.0000
TH3 ROB: 104 LSQ: 87 IQ: 96, IPC: 2.1960
EPOCH ENDS
EPOCH STARTS
TH0 ROB: 4 LSQ: 3 IQ: 0 IPC: 0.0000
TH1 ROB: 4 LSQ: 3 IQ: 0, IPC: 0.0000
TH2 ROB: 4 LSQ: 2 IQ: 0, IPC: 0.0000
TH3 ROB: 105 LSQ: 86 IQ: 96, IPC: 2.1960
EPOCH ENDS
EPOCH STARTS
TH0 ROB: 4 LSQ: 3 IQ: 0 IPC: 0.0000
TH1 ROB: 4 LSQ: 3 IQ: 0, IPC: 0.0000
TH2 ROB: 4 LSQ: 2 IQ: 0, IPC: 0.0000
TH3 ROB: 105 LSQ: 86 IQ: 96, IPC: 2.1960
EPOCH ENDS
EPOCH STARTS
TH0 ROB: 4 LSQ: 3 IQ: 0 IPC: 0.0000
TH1 ROB: 4 LSQ: 3 IQ: 0, IPC: 0.0000
TH2 ROB: 4 LSQ: 2 IQ: 0, IPC: 0.0000
TH3 ROB: 106 LSQ: 87 IQ: 96, IPC: 2.1960
EPOCH ENDS
EPOCH STARTS
TH0 ROB: 4 LSQ: 3 IQ: 0 IPC: 0.0000
TH1 ROB: 4 LSQ: 3 IQ: 0, IPC: 0.0000
TH2 ROB: 4 LSQ: 2 IQ: 0, IPC: 0.0000
TH3 ROB: 105 LSQ: 87 IQ: 96, IPC: 2.1960
EPOCH ENDS
EPOCH STARTS
TH0 ROB: 4 LSQ: 3 IQ: 0 IPC: 0.0000
TH1 ROB: 4 LSQ: 3 IQ: 0, IPC: 0.0000
TH2 ROB: 4 LSQ: 2 IQ: 0, IPC: 0.0000
TH3 ROB: 105 LSQ: 86 IQ: 96, IPC: 2.1960
EPOCH ENDS
EPOCH STARTS
TH0 ROB: 4 LSQ: 3 IQ: 0 IPC: 0.0000
TH1 ROB: 4 LSQ: 3 IQ: 0, IPC: 0.0000
TH2 ROB: 4 LSQ: 2 IQ: 0, IPC: 0.0000
TH3 ROB: 105 LSQ: 86 IQ: 96, IPC: 2.1960
EPOCH ENDS
EPOCH STARTS
TH0 ROB: 4 LSQ: 3 IQ: 0 IPC: 0.0000
TH1 ROB: 4 LSQ: 3 IQ: 0, IPC: 0.0000
TH2 ROB: 4 LSQ: 2 IQ: 0, IPC: 0.0000
TH3 ROB: 105 LSQ: 86 IQ: 96, IPC: 2.1960
EPOCH ENDS
EPOCH STARTS
TH0 ROB: 4 LSQ: 3 IQ: 0 IPC: 0.0000
TH1 ROB: 4 LSQ: 3 IQ: 0, IPC: 0.0000
TH2 ROB: 4 LSQ: 2 IQ: 0, IPC: 0.0000
TH3 ROB: 105 LSQ: 86 IQ: 96, IPC: 2.1960
EPOCH ENDS
EPOCH STARTS
TH0 ROB: 4 LSQ: 3 IQ: 0 IPC: 0.0000
TH1 ROB: 4 LSQ: 3 IQ: 0, IPC: 0.0000
TH2 ROB: 4 LSQ: 2 IQ: 0, IPC: 0.0000
TH3 ROB: 105 LSQ: 87 IQ: 96, IPC: 2.1960
EPOCH ENDS
EPOCH STARTS
TH0 ROB: 4 LSQ: 3 IQ: 0 IPC: 0.0000
TH1 ROB: 4 LSQ: 3 IQ: 0, IPC: 0.0000
TH2 ROB: 4 LSQ: 2 IQ: 0, IPC: 0.0000
TH3 ROB: 105 LSQ: 86 IQ: 96, IPC: 2.1960
EPOCH ENDS
EPOCH STARTS
TH0 ROB: 4 LSQ: 3 IQ: 0 IPC: 0.0000
TH1 ROB: 4 LSQ: 3 IQ: 0, IPC: 0.0000
TH2 ROB: 4 LSQ: 2 IQ: 0, IPC: 0.0000
TH3 ROB: 105 LSQ: 86 IQ: 96, IPC: 2.1960
EPOCH ENDS
EPOCH STARTS
TH0 ROB: 4 LSQ: 3 IQ: 0 IPC: 0.0000
TH1 ROB: 4 LSQ: 3 IQ: 0, IPC: 0.0000
TH2 ROB: 4 LSQ: 2 IQ: 0, IPC: 0.0000
TH3 ROB: 105 LSQ: 86 IQ: 96, IPC: 2.1960
EPOCH ENDS
EPOCH STARTS
TH0 ROB: 4 LSQ: 3 IQ: 0 IPC: 0.0000
TH1 ROB: 4 LSQ: 3 IQ: 0, IPC: 0.0000
TH2 ROB: 4 LSQ: 2 IQ: 0, IPC: 0.0000
TH3 ROB: 105 LSQ: 87 IQ: 96, IPC: 2.1960
EPOCH ENDS
EPOCH STARTS
TH0 ROB: 4 LSQ: 3 IQ: 0 IPC: 0.0000
TH1 ROB: 4 LSQ: 3 IQ: 0, IPC: 0.0000
TH2 ROB: 4 LSQ: 2 IQ: 0, IPC: 0.0000
TH3 ROB: 105 LSQ: 88 IQ: 96, IPC: 2.1960
EPOCH ENDS
EPOCH STARTS
TH0 ROB: 4 LSQ: 3 IQ: 0 IPC: 0.0000
TH1 ROB: 4 LSQ: 3 IQ: 0, IPC: 0.0000
TH2 ROB: 4 LSQ: 2 IQ: 0, IPC: 0.0000
TH3 ROB: 104 LSQ: 85 IQ: 96, IPC: 2.1960
EPOCH ENDS
EPOCH STARTS
TH0 ROB: 4 LSQ: 3 IQ: 0 IPC: 0.0000
TH1 ROB: 4 LSQ: 3 IQ: 0, IPC: 0.0000
TH2 ROB: 4 LSQ: 2 IQ: 0, IPC: 0.0000
TH3 ROB: 104 LSQ: 85 IQ: 96, IPC: 2.1960
EPOCH ENDS
EPOCH STARTS
TH0 ROB: 4 LSQ: 3 IQ: 0 IPC: 0.0000
TH1 ROB: 4 LSQ: 3 IQ: 0, IPC: 0.0000
TH2 ROB: 4 LSQ: 2 IQ: 0, IPC: 0.0000
TH3 ROB: 105 LSQ: 86 IQ: 96, IPC: 2.1960
EPOCH ENDS
EPOCH STARTS
TH0 ROB: 4 LSQ: 3 IQ: 0 IPC: 0.0000
TH1 ROB: 4 LSQ: 3 IQ: 0, IPC: 0.0000
TH2 ROB: 4 LSQ: 2 IQ: 0, IPC: 0.0000
TH3 ROB: 105 LSQ: 87 IQ: 96, IPC: 2.1960
EPOCH ENDS
EPOCH STARTS
TH0 ROB: 4 LSQ: 3 IQ: 0 IPC: 0.0000
TH1 ROB: 4 LSQ: 3 IQ: 0, IPC: 0.0000
TH2 ROB: 4 LSQ: 2 IQ: 0, IPC: 0.0000
TH3 ROB: 106 LSQ: 87 IQ: 96, IPC: 2.1960
EPOCH ENDS
EPOCH STARTS
TH0 ROB: 4 LSQ: 3 IQ: 0 IPC: 0.0000
TH1 ROB: 4 LSQ: 3 IQ: 0, IPC: 0.0000
TH2 ROB: 4 LSQ: 2 IQ: 0, IPC: 0.0000
TH3 ROB: 104 LSQ: 85 IQ: 96, IPC: 2.1960
EPOCH ENDS
EPOCH STARTS
TH0 ROB: 4 LSQ: 3 IQ: 0 IPC: 0.0000
TH1 ROB: 4 LSQ: 3 IQ: 0, IPC: 0.0000
TH2 ROB: 4 LSQ: 2 IQ: 0, IPC: 0.0000
TH3 ROB: 104 LSQ: 85 IQ: 96, IPC: 2.1960
EPOCH ENDS
EPOCH STARTS
TH0 ROB: 4 LSQ: 3 IQ: 0 IPC: 0.0000
TH1 ROB: 4 LSQ: 3 IQ: 0, IPC: 0.0000
TH2 ROB: 4 LSQ: 2 IQ: 0, IPC: 0.0000
TH3 ROB: 104 LSQ: 85 IQ: 96, IPC: 2.1960
EPOCH ENDS
EPOCH STARTS
TH0 ROB: 4 LSQ: 3 IQ: 0 IPC: 0.0000
TH1 ROB: 4 LSQ: 3 IQ: 0, IPC: 0.0000
TH2 ROB: 4 LSQ: 2 IQ: 0, IPC: 0.0000
TH3 ROB: 105 LSQ: 87 IQ: 96, IPC: 2.1960
EPOCH ENDS
EPOCH STARTS
TH0 ROB: 4 LSQ: 3 IQ: 0 IPC: 0.0000
TH1 ROB: 4 LSQ: 3 IQ: 0, IPC: 0.0000
TH2 ROB: 4 LSQ: 2 IQ: 0, IPC: 0.0000
TH3 ROB: 105 LSQ: 86 IQ: 96, IPC: 2.1960
EPOCH ENDS
EPOCH STARTS
TH0 ROB: 4 LSQ: 3 IQ: 0 IPC: 0.0000
TH1 ROB: 4 LSQ: 3 IQ: 0, IPC: 0.0000
TH2 ROB: 4 LSQ: 2 IQ: 0, IPC: 0.0000
TH3 ROB: 104 LSQ: 85 IQ: 96, IPC: 2.1960
EPOCH ENDS
EPOCH STARTS
TH0 ROB: 4 LSQ: 3 IQ: 0 IPC: 0.0000
TH1 ROB: 4 LSQ: 3 IQ: 0, IPC: 0.0000
TH2 ROB: 4 LSQ: 2 IQ: 0, IPC: 0.0000
TH3 ROB: 104 LSQ: 85 IQ: 96, IPC: 2.1960
EPOCH ENDS
EPOCH STARTS
TH0 ROB: 4 LSQ: 3 IQ: 0 IPC: 0.0000
TH1 ROB: 4 LSQ: 3 IQ: 0, IPC: 0.0000
TH2 ROB: 4 LSQ: 2 IQ: 0, IPC: 0.0000
TH3 ROB: 104 LSQ: 87 IQ: 96, IPC: 2.1960
EPOCH ENDS
EPOCH STARTS
TH0 ROB: 4 LSQ: 3 IQ: 0 IPC: 0.0000
TH1 ROB: 4 LSQ: 3 IQ: 0, IPC: 0.0000
TH2 ROB: 4 LSQ: 2 IQ: 0, IPC: 0.0000
TH3 ROB: 105 LSQ: 87 IQ: 96, IPC: 2.1960
EPOCH ENDS
EPOCH STARTS
TH0 ROB: 4 LSQ: 3 IQ: 0 IPC: 0.0000
TH1 ROB: 4 LSQ: 3 IQ: 0, IPC: 0.0000
TH2 ROB: 4 LSQ: 2 IQ: 0, IPC: 0.0000
TH3 ROB: 105 LSQ: 85 IQ: 96, IPC: 2.1960
EPOCH ENDS
EPOCH STARTS
TH0 ROB: 4 LSQ: 3 IQ: 0 IPC: 0.0000
TH1 ROB: 4 LSQ: 3 IQ: 0, IPC: 0.0000
TH2 ROB: 4 LSQ: 2 IQ: 0, IPC: 0.0000
TH3 ROB: 104 LSQ: 85 IQ: 96, IPC: 2.1960
EPOCH ENDS
EPOCH STARTS
TH0 ROB: 4 LSQ: 3 IQ: 0 IPC: 0.0000
TH1 ROB: 4 LSQ: 3 IQ: 0, IPC: 0.0000
TH2 ROB: 4 LSQ: 2 IQ: 0, IPC: 0.0000
TH3 ROB: 104 LSQ: 85 IQ: 96, IPC: 2.1960
EPOCH ENDS
EPOCH STARTS
TH0 ROB: 4 LSQ: 3 IQ: 0 IPC: 0.0000
TH1 ROB: 4 LSQ: 3 IQ: 0, IPC: 0.0000
TH2 ROB: 4 LSQ: 2 IQ: 0, IPC: 0.0000
TH3 ROB: 104 LSQ: 86 IQ: 96, IPC: 2.1960
EPOCH ENDS
EPOCH STARTS
TH0 ROB: 4 LSQ: 3 IQ: 0 IPC: 0.0000
TH1 ROB: 4 LSQ: 3 IQ: 0, IPC: 0.0000
TH2 ROB: 4 LSQ: 2 IQ: 0, IPC: 0.0000
TH3 ROB: 107 LSQ: 88 IQ: 96, IPC: 2.1960
EPOCH ENDS
EPOCH STARTS
TH0 ROB: 4 LSQ: 3 IQ: 0 IPC: 0.0000
TH1 ROB: 4 LSQ: 3 IQ: 0, IPC: 0.0000
TH2 ROB: 4 LSQ: 2 IQ: 0, IPC: 0.0000
TH3 ROB: 105 LSQ: 86 IQ: 96, IPC: 2.1960
EPOCH ENDS
EPOCH STARTS
TH0 ROB: 4 LSQ: 3 IQ: 0 IPC: 0.0000
TH1 ROB: 4 LSQ: 3 IQ: 0, IPC: 0.0000
TH2 ROB: 4 LSQ: 2 IQ: 0, IPC: 0.0000
TH3 ROB: 105 LSQ: 85 IQ: 96, IPC: 2.1960
EPOCH ENDS
EPOCH STARTS
TH0 ROB: 4 LSQ: 3 IQ: 0 IPC: 0.0000
TH1 ROB: 4 LSQ: 3 IQ: 0, IPC: 0.0000
TH2 ROB: 4 LSQ: 2 IQ: 0, IPC: 0.0000
TH3 ROB: 104 LSQ: 85 IQ: 96, IPC: 2.1960
EPOCH ENDS
EPOCH STARTS
TH0 ROB: 4 LSQ: 3 IQ: 0 IPC: 0.0000
TH1 ROB: 4 LSQ: 3 IQ: 0, IPC: 0.0000
TH2 ROB: 4 LSQ: 2 IQ: 0, IPC: 0.0000
TH3 ROB: 105 LSQ: 87 IQ: 96, IPC: 2.1960
EPOCH ENDS
EPOCH STARTS
TH0 ROB: 4 LSQ: 3 IQ: 0 IPC: 0.0000
TH1 ROB: 4 LSQ: 3 IQ: 0, IPC: 0.0000
TH2 ROB: 4 LSQ: 2 IQ: 0, IPC: 0.0000
TH3 ROB: 105 LSQ: 86 IQ: 96, IPC: 2.1960
EPOCH ENDS
EPOCH STARTS
TH0 ROB: 4 LSQ: 3 IQ: 0 IPC: 0.0000
TH1 ROB: 4 LSQ: 3 IQ: 0, IPC: 0.0000
TH2 ROB: 4 LSQ: 2 IQ: 0, IPC: 0.0000
TH3 ROB: 104 LSQ: 85 IQ: 96, IPC: 2.1960
EPOCH ENDS
EPOCH STARTS
TH0 ROB: 4 LSQ: 3 IQ: 0 IPC: 0.0000
TH1 ROB: 4 LSQ: 3 IQ: 0, IPC: 0.0000
TH2 ROB: 4 LSQ: 2 IQ: 0, IPC: 0.0000
TH3 ROB: 105 LSQ: 86 IQ: 96, IPC: 2.1960
EPOCH ENDS
EPOCH STARTS
TH0 ROB: 4 LSQ: 3 IQ: 0 IPC: 0.0000
TH1 ROB: 4 LSQ: 3 IQ: 0, IPC: 0.0000
TH2 ROB: 4 LSQ: 2 IQ: 0, IPC: 0.0000
TH3 ROB: 105 LSQ: 87 IQ: 96, IPC: 2.1960
EPOCH ENDS
EPOCH STARTS
TH0 ROB: 4 LSQ: 3 IQ: 0 IPC: 0.0000
TH1 ROB: 4 LSQ: 3 IQ: 0, IPC: 0.0000
TH2 ROB: 4 LSQ: 2 IQ: 0, IPC: 0.0000
TH3 ROB: 105 LSQ: 87 IQ: 96, IPC: 2.1960
EPOCH ENDS
EPOCH STARTS
TH0 ROB: 4 LSQ: 3 IQ: 0 IPC: 0.0000
TH1 ROB: 4 LSQ: 3 IQ: 0, IPC: 0.0000
TH2 ROB: 4 LSQ: 2 IQ: 0, IPC: 0.0000
TH3 ROB: 106 LSQ: 87 IQ: 96, IPC: 2.1960
EPOCH ENDS
EPOCH STARTS
TH0 ROB: 4 LSQ: 3 IQ: 0 IPC: 0.0000
TH1 ROB: 4 LSQ: 3 IQ: 0, IPC: 0.0000
TH2 ROB: 4 LSQ: 2 IQ: 0, IPC: 0.0000
TH3 ROB: 104 LSQ: 85 IQ: 96, IPC: 2.1960
EPOCH ENDS
EPOCH STARTS
TH0 ROB: 4 LSQ: 3 IQ: 0 IPC: 0.0000
TH1 ROB: 4 LSQ: 3 IQ: 0, IPC: 0.0000
TH2 ROB: 4 LSQ: 2 IQ: 0, IPC: 0.0000
TH3 ROB: 104 LSQ: 85 IQ: 96, IPC: 2.1960
EPOCH ENDS
EPOCH STARTS
TH0 ROB: 4 LSQ: 3 IQ: 0 IPC: 0.0000
TH1 ROB: 4 LSQ: 3 IQ: 0, IPC: 0.0000
TH2 ROB: 4 LSQ: 2 IQ: 0, IPC: 0.0000
TH3 ROB: 105 LSQ: 87 IQ: 96, IPC: 2.1960
EPOCH ENDS
EPOCH STARTS
TH0 ROB: 4 LSQ: 3 IQ: 0 IPC: 0.0000
TH1 ROB: 4 LSQ: 3 IQ: 0, IPC: 0.0000
TH2 ROB: 4 LSQ: 2 IQ: 0, IPC: 0.0000
TH3 ROB: 106 LSQ: 87 IQ: 96, IPC: 2.1960
EPOCH ENDS
EPOCH STARTS
TH0 ROB: 4 LSQ: 3 IQ: 0 IPC: 0.0000
TH1 ROB: 4 LSQ: 3 IQ: 0, IPC: 0.0000
TH2 ROB: 4 LSQ: 2 IQ: 0, IPC: 0.0000
TH3 ROB: 106 LSQ: 87 IQ: 96, IPC: 2.1960
EPOCH ENDS
EPOCH STARTS
TH0 ROB: 4 LSQ: 3 IQ: 0 IPC: 0.0000
TH1 ROB: 4 LSQ: 3 IQ: 0, IPC: 0.0000
TH2 ROB: 4 LSQ: 2 IQ: 0, IPC: 0.0000
TH3 ROB: 106 LSQ: 87 IQ: 96, IPC: 2.1960
EPOCH ENDS
EPOCH STARTS
TH0 ROB: 4 LSQ: 3 IQ: 0 IPC: 0.0000
TH1 ROB: 4 LSQ: 3 IQ: 0, IPC: 0.0000
TH2 ROB: 4 LSQ: 2 IQ: 0, IPC: 0.0000
TH3 ROB: 104 LSQ: 86 IQ: 96, IPC: 2.1960
EPOCH ENDS
EPOCH STARTS
TH0 ROB: 4 LSQ: 3 IQ: 0 IPC: 0.0000
TH1 ROB: 4 LSQ: 3 IQ: 0, IPC: 0.0000
TH2 ROB: 4 LSQ: 2 IQ: 0, IPC: 0.0000
TH3 ROB: 104 LSQ: 87 IQ: 96, IPC: 2.1960
EPOCH ENDS
EPOCH STARTS
TH0 ROB: 4 LSQ: 3 IQ: 0 IPC: 0.0000
TH1 ROB: 4 LSQ: 3 IQ: 0, IPC: 0.0000
TH2 ROB: 4 LSQ: 2 IQ: 0, IPC: 0.0000
TH3 ROB: 105 LSQ: 86 IQ: 96, IPC: 2.1960
EPOCH ENDS
EPOCH STARTS
TH0 ROB: 4 LSQ: 3 IQ: 0 IPC: 0.0000
TH1 ROB: 4 LSQ: 3 IQ: 0, IPC: 0.0000
TH2 ROB: 4 LSQ: 2 IQ: 0, IPC: 0.0000
TH3 ROB: 105 LSQ: 86 IQ: 96, IPC: 2.1960
EPOCH ENDS
EPOCH STARTS
TH0 ROB: 4 LSQ: 3 IQ: 0 IPC: 0.0000
TH1 ROB: 4 LSQ: 3 IQ: 0, IPC: 0.0000
TH2 ROB: 4 LSQ: 2 IQ: 0, IPC: 0.0000
TH3 ROB: 106 LSQ: 87 IQ: 96, IPC: 2.1960
EPOCH ENDS
EPOCH STARTS
TH0 ROB: 4 LSQ: 3 IQ: 0 IPC: 0.0000
TH1 ROB: 4 LSQ: 3 IQ: 0, IPC: 0.0000
TH2 ROB: 4 LSQ: 2 IQ: 0, IPC: 0.0000
TH3 ROB: 105 LSQ: 87 IQ: 96, IPC: 2.1960
EPOCH ENDS
EPOCH STARTS
TH0 ROB: 4 LSQ: 3 IQ: 0 IPC: 0.0000
TH1 ROB: 4 LSQ: 3 IQ: 0, IPC: 0.0000
TH2 ROB: 4 LSQ: 2 IQ: 0, IPC: 0.0000
TH3 ROB: 105 LSQ: 86 IQ: 96, IPC: 2.1960
EPOCH ENDS
EPOCH STARTS
TH0 ROB: 4 LSQ: 3 IQ: 0 IPC: 0.0000
TH1 ROB: 4 LSQ: 3 IQ: 0, IPC: 0.0000
TH2 ROB: 4 LSQ: 2 IQ: 0, IPC: 0.0000
TH3 ROB: 105 LSQ: 86 IQ: 96, IPC: 2.1960
EPOCH ENDS
EPOCH STARTS
TH0 ROB: 4 LSQ: 3 IQ: 0 IPC: 0.0000
TH1 ROB: 4 LSQ: 3 IQ: 0, IPC: 0.0000
TH2 ROB: 4 LSQ: 2 IQ: 0, IPC: 0.0000
TH3 ROB: 105 LSQ: 86 IQ: 96, IPC: 2.1960
EPOCH ENDS
EPOCH STARTS
TH0 ROB: 4 LSQ: 3 IQ: 0 IPC: 0.0000
TH1 ROB: 4 LSQ: 3 IQ: 0, IPC: 0.0000
TH2 ROB: 4 LSQ: 2 IQ: 0, IPC: 0.0000
TH3 ROB: 105 LSQ: 86 IQ: 96, IPC: 2.1960
EPOCH ENDS
EPOCH STARTS
TH0 ROB: 4 LSQ: 3 IQ: 0 IPC: 0.0000
TH1 ROB: 4 LSQ: 3 IQ: 0, IPC: 0.0000
TH2 ROB: 4 LSQ: 2 IQ: 0, IPC: 0.0000
TH3 ROB: 105 LSQ: 87 IQ: 96, IPC: 2.1960
EPOCH ENDS
EPOCH STARTS
TH0 ROB: 4 LSQ: 3 IQ: 0 IPC: 0.0000
TH1 ROB: 4 LSQ: 3 IQ: 0, IPC: 0.0000
TH2 ROB: 4 LSQ: 2 IQ: 0, IPC: 0.0000
TH3 ROB: 105 LSQ: 86 IQ: 96, IPC: 2.1960
EPOCH ENDS
EPOCH STARTS
TH0 ROB: 4 LSQ: 3 IQ: 0 IPC: 0.0000
TH1 ROB: 4 LSQ: 3 IQ: 0, IPC: 0.0000
TH2 ROB: 4 LSQ: 2 IQ: 0, IPC: 0.0000
TH3 ROB: 105 LSQ: 86 IQ: 96, IPC: 2.1960
EPOCH ENDS
EPOCH STARTS
TH0 ROB: 4 LSQ: 3 IQ: 0 IPC: 0.0000
TH1 ROB: 4 LSQ: 3 IQ: 0, IPC: 0.0000
TH2 ROB: 4 LSQ: 2 IQ: 0, IPC: 0.0000
TH3 ROB: 105 LSQ: 86 IQ: 96, IPC: 2.1960
EPOCH ENDS
EPOCH STARTS
TH0 ROB: 4 LSQ: 3 IQ: 0 IPC: 0.0000
TH1 ROB: 4 LSQ: 3 IQ: 0, IPC: 0.0000
TH2 ROB: 4 LSQ: 2 IQ: 0, IPC: 0.0000
TH3 ROB: 105 LSQ: 87 IQ: 96, IPC: 2.1960
EPOCH ENDS
EPOCH STARTS
TH0 ROB: 4 LSQ: 3 IQ: 0 IPC: 0.0000
TH1 ROB: 4 LSQ: 3 IQ: 0, IPC: 0.0000
TH2 ROB: 4 LSQ: 2 IQ: 0, IPC: 0.0000
TH3 ROB: 105 LSQ: 88 IQ: 96, IPC: 2.1960
EPOCH ENDS
EPOCH STARTS
TH0 ROB: 4 LSQ: 3 IQ: 0 IPC: 0.0000
TH1 ROB: 4 LSQ: 3 IQ: 0, IPC: 0.0000
TH2 ROB: 4 LSQ: 2 IQ: 0, IPC: 0.0000
TH3 ROB: 104 LSQ: 85 IQ: 96, IPC: 2.1960
EPOCH ENDS
EPOCH STARTS
TH0 ROB: 4 LSQ: 3 IQ: 0 IPC: 0.0000
TH1 ROB: 4 LSQ: 3 IQ: 0, IPC: 0.0000
TH2 ROB: 4 LSQ: 2 IQ: 0, IPC: 0.0000
TH3 ROB: 104 LSQ: 85 IQ: 96, IPC: 2.1960
EPOCH ENDS
EPOCH STARTS
TH0 ROB: 4 LSQ: 3 IQ: 0 IPC: 0.0000
TH1 ROB: 4 LSQ: 3 IQ: 0, IPC: 0.0000
TH2 ROB: 4 LSQ: 2 IQ: 0, IPC: 0.0000
TH3 ROB: 105 LSQ: 86 IQ: 96, IPC: 2.1960
EPOCH ENDS
EPOCH STARTS
TH0 ROB: 4 LSQ: 3 IQ: 0 IPC: 0.0000
TH1 ROB: 4 LSQ: 3 IQ: 0, IPC: 0.0000
TH2 ROB: 4 LSQ: 2 IQ: 0, IPC: 0.0000
TH3 ROB: 105 LSQ: 87 IQ: 96, IPC: 2.1960
EPOCH ENDS
EPOCH STARTS
TH0 ROB: 4 LSQ: 3 IQ: 0 IPC: 0.0000
TH1 ROB: 4 LSQ: 3 IQ: 0, IPC: 0.0000
TH2 ROB: 4 LSQ: 2 IQ: 0, IPC: 0.0000
TH3 ROB: 106 LSQ: 87 IQ: 96, IPC: 2.1960
EPOCH ENDS
EPOCH STARTS
TH0 ROB: 4 LSQ: 3 IQ: 0 IPC: 0.0000
TH1 ROB: 4 LSQ: 3 IQ: 0, IPC: 0.0000
TH2 ROB: 4 LSQ: 2 IQ: 0, IPC: 0.0000
TH3 ROB: 104 LSQ: 85 IQ: 96, IPC: 2.1960
EPOCH ENDS
EPOCH STARTS
TH0 ROB: 4 LSQ: 3 IQ: 0 IPC: 0.0000
TH1 ROB: 4 LSQ: 3 IQ: 0, IPC: 0.0000
TH2 ROB: 4 LSQ: 2 IQ: 0, IPC: 0.0000
TH3 ROB: 104 LSQ: 85 IQ: 96, IPC: 2.1960
EPOCH ENDS
EPOCH STARTS
TH0 ROB: 4 LSQ: 3 IQ: 0 IPC: 0.0000
TH1 ROB: 4 LSQ: 3 IQ: 0, IPC: 0.0000
TH2 ROB: 4 LSQ: 2 IQ: 0, IPC: 0.0000
TH3 ROB: 104 LSQ: 85 IQ: 96, IPC: 2.1960
EPOCH ENDS
EPOCH STARTS
TH0 ROB: 4 LSQ: 3 IQ: 0 IPC: 0.0000
TH1 ROB: 4 LSQ: 3 IQ: 0, IPC: 0.0000
TH2 ROB: 4 LSQ: 2 IQ: 0, IPC: 0.0000
TH3 ROB: 105 LSQ: 87 IQ: 96, IPC: 2.1960
EPOCH ENDS
EPOCH STARTS
TH0 ROB: 4 LSQ: 3 IQ: 0 IPC: 0.0000
TH1 ROB: 4 LSQ: 3 IQ: 0, IPC: 0.0000
TH2 ROB: 4 LSQ: 2 IQ: 0, IPC: 0.0000
TH3 ROB: 105 LSQ: 86 IQ: 96, IPC: 2.1960
EPOCH ENDS
EPOCH STARTS
TH0 ROB: 4 LSQ: 3 IQ: 0 IPC: 0.0000
TH1 ROB: 4 LSQ: 3 IQ: 0, IPC: 0.0000
TH2 ROB: 4 LSQ: 2 IQ: 0, IPC: 0.0000
TH3 ROB: 104 LSQ: 85 IQ: 96, IPC: 2.1960
EPOCH ENDS
EPOCH STARTS
TH0 ROB: 4 LSQ: 3 IQ: 0 IPC: 0.0000
TH1 ROB: 4 LSQ: 3 IQ: 0, IPC: 0.0000
TH2 ROB: 4 LSQ: 2 IQ: 0, IPC: 0.0000
TH3 ROB: 104 LSQ: 85 IQ: 96, IPC: 2.1960
EPOCH ENDS
EPOCH STARTS
TH0 ROB: 4 LSQ: 3 IQ: 0 IPC: 0.0000
TH1 ROB: 4 LSQ: 3 IQ: 0, IPC: 0.0000
TH2 ROB: 4 LSQ: 2 IQ: 0, IPC: 0.0000
TH3 ROB: 104 LSQ: 87 IQ: 96, IPC: 2.1960
EPOCH ENDS
EPOCH STARTS
TH0 ROB: 4 LSQ: 3 IQ: 0 IPC: 0.0000
TH1 ROB: 4 LSQ: 3 IQ: 0, IPC: 0.0000
TH2 ROB: 4 LSQ: 2 IQ: 0, IPC: 0.0000
TH3 ROB: 105 LSQ: 87 IQ: 96, IPC: 2.1960
EPOCH ENDS
EPOCH STARTS
TH0 ROB: 4 LSQ: 3 IQ: 0 IPC: 0.0000
TH1 ROB: 4 LSQ: 3 IQ: 0, IPC: 0.0000
TH2 ROB: 4 LSQ: 2 IQ: 0, IPC: 0.0000
TH3 ROB: 105 LSQ: 85 IQ: 96, IPC: 2.1960
EPOCH ENDS
EPOCH STARTS
TH0 ROB: 4 LSQ: 3 IQ: 0 IPC: 0.0000
TH1 ROB: 4 LSQ: 3 IQ: 0, IPC: 0.0000
TH2 ROB: 4 LSQ: 2 IQ: 0, IPC: 0.0000
TH3 ROB: 104 LSQ: 85 IQ: 96, IPC: 2.1960
EPOCH ENDS
EPOCH STARTS
TH0 ROB: 4 LSQ: 3 IQ: 0 IPC: 0.0000
TH1 ROB: 4 LSQ: 3 IQ: 0, IPC: 0.0000
TH2 ROB: 4 LSQ: 2 IQ: 0, IPC: 0.0000
TH3 ROB: 104 LSQ: 85 IQ: 96, IPC: 2.1960
EPOCH ENDS
EPOCH STARTS
TH0 ROB: 7 LSQ: 6 IQ: 4 IPC: 0.0000
TH1 ROB: 81 LSQ: 66 IQ: 3, IPC: 0.0000
TH2 ROB: 162 LSQ: 65 IQ: 62, IPC: 0.0000
TH3 ROB: 1 LSQ: 0 IQ: 0, IPC: 2.1960
EPOCH ENDS
EPOCH STARTS
TH0 ROB: 4 LSQ: 4 IQ: 0 IPC: 0.0002
TH1 ROB: 105 LSQ: 87 IQ: 96, IPC: 0.0064
TH2 ROB: 4 LSQ: 1 IQ: 0, IPC: 0.0001
TH3 ROB: 4 LSQ: 3 IQ: 0, IPC: 2.1893
EPOCH ENDS
EPOCH STARTS
TH0 ROB: 4 LSQ: 4 IQ: 0 IPC: 0.0002
TH1 ROB: 106 LSQ: 87 IQ: 96, IPC: 0.0131
TH2 ROB: 4 LSQ: 1 IQ: 0, IPC: 0.0001
TH3 ROB: 4 LSQ: 3 IQ: 0, IPC: 2.1826
EPOCH ENDS
EPOCH STARTS
TH0 ROB: 4 LSQ: 4 IQ: 0 IPC: 0.0002
TH1 ROB: 104 LSQ: 85 IQ: 96, IPC: 0.0198
TH2 ROB: 4 LSQ: 1 IQ: 0, IPC: 0.0001
TH3 ROB: 4 LSQ: 3 IQ: 0, IPC: 2.1759
EPOCH ENDS
EPOCH STARTS
TH0 ROB: 4 LSQ: 4 IQ: 0 IPC: 0.0002
TH1 ROB: 104 LSQ: 85 IQ: 96, IPC: 0.0264
TH2 ROB: 4 LSQ: 1 IQ: 0, IPC: 0.0001
TH3 ROB: 4 LSQ: 3 IQ: 0, IPC: 2.1693
EPOCH ENDS
EPOCH STARTS
TH0 ROB: 4 LSQ: 4 IQ: 0 IPC: 0.0002
TH1 ROB: 104 LSQ: 85 IQ: 96, IPC: 0.0330
TH2 ROB: 4 LSQ: 1 IQ: 0, IPC: 0.0001
TH3 ROB: 4 LSQ: 3 IQ: 0, IPC: 2.1627
EPOCH ENDS
EPOCH STARTS
TH0 ROB: 4 LSQ: 4 IQ: 0 IPC: 0.0002
TH1 ROB: 105 LSQ: 87 IQ: 96, IPC: 0.0396
TH2 ROB: 4 LSQ: 1 IQ: 0, IPC: 0.0001
TH3 ROB: 4 LSQ: 3 IQ: 0, IPC: 2.1561
EPOCH ENDS
EPOCH STARTS
TH0 ROB: 4 LSQ: 4 IQ: 0 IPC: 0.0002
TH1 ROB: 105 LSQ: 86 IQ: 96, IPC: 0.0461
TH2 ROB: 4 LSQ: 1 IQ: 0, IPC: 0.0001
TH3 ROB: 4 LSQ: 3 IQ: 0, IPC: 2.1496
EPOCH ENDS
EPOCH STARTS
TH0 ROB: 4 LSQ: 4 IQ: 0 IPC: 0.0002
TH1 ROB: 104 LSQ: 85 IQ: 96, IPC: 0.0526
TH2 ROB: 4 LSQ: 1 IQ: 0, IPC: 0.0001
TH3 ROB: 4 LSQ: 3 IQ: 0, IPC: 2.1431
EPOCH ENDS
EPOCH STARTS
TH0 ROB: 4 LSQ: 4 IQ: 0 IPC: 0.0002
TH1 ROB: 104 LSQ: 85 IQ: 96, IPC: 0.0590
TH2 ROB: 4 LSQ: 1 IQ: 0, IPC: 0.0001
TH3 ROB: 4 LSQ: 3 IQ: 0, IPC: 2.1367
EPOCH ENDS
EPOCH STARTS
TH0 ROB: 4 LSQ: 4 IQ: 0 IPC: 0.0002
TH1 ROB: 104 LSQ: 87 IQ: 96, IPC: 0.0654
TH2 ROB: 4 LSQ: 1 IQ: 0, IPC: 0.0001
TH3 ROB: 4 LSQ: 3 IQ: 0, IPC: 2.1303
EPOCH ENDS
EPOCH STARTS
TH0 ROB: 4 LSQ: 4 IQ: 0 IPC: 0.0002
TH1 ROB: 105 LSQ: 87 IQ: 96, IPC: 0.0717
TH2 ROB: 4 LSQ: 1 IQ: 0, IPC: 0.0001
TH3 ROB: 4 LSQ: 3 IQ: 0, IPC: 2.1239
EPOCH ENDS
EPOCH STARTS
TH0 ROB: 4 LSQ: 4 IQ: 0 IPC: 0.0002
TH1 ROB: 105 LSQ: 85 IQ: 96, IPC: 0.0781
TH2 ROB: 4 LSQ: 1 IQ: 0, IPC: 0.0001
TH3 ROB: 4 LSQ: 3 IQ: 0, IPC: 2.1176
EPOCH ENDS
EPOCH STARTS
TH0 ROB: 4 LSQ: 4 IQ: 0 IPC: 0.0002
TH1 ROB: 104 LSQ: 85 IQ: 96, IPC: 0.0844
TH2 ROB: 4 LSQ: 1 IQ: 0, IPC: 0.0001
TH3 ROB: 4 LSQ: 3 IQ: 0, IPC: 2.1113
EPOCH ENDS
EPOCH STARTS
TH0 ROB: 4 LSQ: 4 IQ: 0 IPC: 0.0002
TH1 ROB: 104 LSQ: 85 IQ: 96, IPC: 0.0906
TH2 ROB: 4 LSQ: 1 IQ: 0, IPC: 0.0001
TH3 ROB: 4 LSQ: 3 IQ: 0, IPC: 2.1051
EPOCH ENDS
EPOCH STARTS
TH0 ROB: 4 LSQ: 4 IQ: 0 IPC: 0.0002
TH1 ROB: 104 LSQ: 86 IQ: 96, IPC: 0.0968
TH2 ROB: 4 LSQ: 1 IQ: 0, IPC: 0.0001
TH3 ROB: 4 LSQ: 3 IQ: 0, IPC: 2.0989
EPOCH ENDS
EPOCH STARTS
TH0 ROB: 4 LSQ: 4 IQ: 0 IPC: 0.0002
TH1 ROB: 107 LSQ: 88 IQ: 96, IPC: 0.1030
TH2 ROB: 4 LSQ: 1 IQ: 0, IPC: 0.0001
TH3 ROB: 4 LSQ: 3 IQ: 0, IPC: 2.0927
EPOCH ENDS
EPOCH STARTS
TH0 ROB: 4 LSQ: 4 IQ: 0 IPC: 0.0002
TH1 ROB: 105 LSQ: 86 IQ: 96, IPC: 0.1091
TH2 ROB: 4 LSQ: 1 IQ: 0, IPC: 0.0001
TH3 ROB: 4 LSQ: 3 IQ: 0, IPC: 2.0866
EPOCH ENDS
EPOCH STARTS
TH0 ROB: 4 LSQ: 4 IQ: 0 IPC: 0.0002
TH1 ROB: 105 LSQ: 85 IQ: 96, IPC: 0.1152
TH2 ROB: 4 LSQ: 1 IQ: 0, IPC: 0.0001
TH3 ROB: 4 LSQ: 3 IQ: 0, IPC: 2.0805
EPOCH ENDS
EPOCH STARTS
TH0 ROB: 4 LSQ: 4 IQ: 0 IPC: 0.0002
TH1 ROB: 104 LSQ: 85 IQ: 96, IPC: 0.1213
TH2 ROB: 4 LSQ: 1 IQ: 0, IPC: 0.0001
TH3 ROB: 4 LSQ: 3 IQ: 0, IPC: 2.0744
EPOCH ENDS
EPOCH STARTS
TH0 ROB: 4 LSQ: 4 IQ: 0 IPC: 0.0002
TH1 ROB: 105 LSQ: 87 IQ: 96, IPC: 0.1273
TH2 ROB: 4 LSQ: 1 IQ: 0, IPC: 0.0001
TH3 ROB: 4 LSQ: 3 IQ: 0, IPC: 2.0684
EPOCH ENDS
EPOCH STARTS
TH0 ROB: 4 LSQ: 4 IQ: 0 IPC: 0.0002
TH1 ROB: 105 LSQ: 86 IQ: 96, IPC: 0.1333
TH2 ROB: 4 LSQ: 1 IQ: 0, IPC: 0.0001
TH3 ROB: 4 LSQ: 3 IQ: 0, IPC: 2.0624
EPOCH ENDS
EPOCH STARTS
TH0 ROB: 4 LSQ: 4 IQ: 0 IPC: 0.0002
TH1 ROB: 104 LSQ: 85 IQ: 96, IPC: 0.1393
TH2 ROB: 4 LSQ: 1 IQ: 0, IPC: 0.0001
TH3 ROB: 4 LSQ: 3 IQ: 0, IPC: 2.0564
EPOCH ENDS
EPOCH STARTS
TH0 ROB: 4 LSQ: 4 IQ: 0 IPC: 0.0002
TH1 ROB: 105 LSQ: 86 IQ: 96, IPC: 0.1452
TH2 ROB: 4 LSQ: 1 IQ: 0, IPC: 0.0001
TH3 ROB: 4 LSQ: 3 IQ: 0, IPC: 2.0505
EPOCH ENDS
EPOCH STARTS
TH0 ROB: 4 LSQ: 4 IQ: 0 IPC: 0.0002
TH1 ROB: 105 LSQ: 87 IQ: 96, IPC: 0.1511
TH2 ROB: 4 LSQ: 1 IQ: 0, IPC: 0.0001
TH3 ROB: 4 LSQ: 3 IQ: 0, IPC: 2.0446
EPOCH ENDS
EPOCH STARTS
TH0 ROB: 4 LSQ: 4 IQ: 0 IPC: 0.0002
TH1 ROB: 105 LSQ: 87 IQ: 96, IPC: 0.1570
TH2 ROB: 4 LSQ: 1 IQ: 0, IPC: 0.0001
TH3 ROB: 4 LSQ: 3 IQ: 0, IPC: 2.0387
EPOCH ENDS
EPOCH STARTS
TH0 ROB: 4 LSQ: 4 IQ: 0 IPC: 0.0002
TH1 ROB: 106 LSQ: 87 IQ: 96, IPC: 0.1628
TH2 ROB: 4 LSQ: 1 IQ: 0, IPC: 0.0001
TH3 ROB: 4 LSQ: 3 IQ: 0, IPC: 2.0329
EPOCH ENDS
EPOCH STARTS
TH0 ROB: 4 LSQ: 4 IQ: 0 IPC: 0.0002
TH1 ROB: 104 LSQ: 85 IQ: 96, IPC: 0.1686
TH2 ROB: 4 LSQ: 1 IQ: 0, IPC: 0.0001
TH3 ROB: 4 LSQ: 3 IQ: 0, IPC: 2.0271
EPOCH ENDS
EPOCH STARTS
TH0 ROB: 4 LSQ: 4 IQ: 0 IPC: 0.0002
TH1 ROB: 104 LSQ: 85 IQ: 96, IPC: 0.1743
TH2 ROB: 4 LSQ: 1 IQ: 0, IPC: 0.0001
TH3 ROB: 4 LSQ: 3 IQ: 0, IPC: 2.0214
EPOCH ENDS
EPOCH STARTS
TH0 ROB: 4 LSQ: 4 IQ: 0 IPC: 0.0001
TH1 ROB: 105 LSQ: 87 IQ: 96, IPC: 0.1801
TH2 ROB: 4 LSQ: 1 IQ: 0, IPC: 0.0001
TH3 ROB: 4 LSQ: 3 IQ: 0, IPC: 2.0156
EPOCH ENDS
EPOCH STARTS
TH0 ROB: 4 LSQ: 4 IQ: 0 IPC: 0.0001
TH1 ROB: 106 LSQ: 87 IQ: 96, IPC: 0.1858
TH2 ROB: 4 LSQ: 1 IQ: 0, IPC: 0.0001
TH3 ROB: 4 LSQ: 3 IQ: 0, IPC: 2.0099
EPOCH ENDS
EPOCH STARTS
TH0 ROB: 4 LSQ: 4 IQ: 0 IPC: 0.0001
TH1 ROB: 106 LSQ: 87 IQ: 96, IPC: 0.1914
TH2 ROB: 4 LSQ: 1 IQ: 0, IPC: 0.0001
TH3 ROB: 4 LSQ: 3 IQ: 0, IPC: 2.0043
EPOCH ENDS
EPOCH STARTS
TH0 ROB: 4 LSQ: 4 IQ: 0 IPC: 0.0001
TH1 ROB: 106 LSQ: 87 IQ: 96, IPC: 0.1971
TH2 ROB: 4 LSQ: 1 IQ: 0, IPC: 0.0001
TH3 ROB: 4 LSQ: 3 IQ: 0, IPC: 1.9986
EPOCH ENDS
EPOCH STARTS
TH0 ROB: 4 LSQ: 4 IQ: 0 IPC: 0.0001
TH1 ROB: 104 LSQ: 86 IQ: 96, IPC: 0.2027
TH2 ROB: 4 LSQ: 1 IQ: 0, IPC: 0.0001
TH3 ROB: 4 LSQ: 3 IQ: 0, IPC: 1.9930
EPOCH ENDS
EPOCH STARTS
TH0 ROB: 4 LSQ: 4 IQ: 0 IPC: 0.0001
TH1 ROB: 104 LSQ: 87 IQ: 96, IPC: 0.2082
TH2 ROB: 4 LSQ: 1 IQ: 0, IPC: 0.0001
TH3 ROB: 4 LSQ: 3 IQ: 0, IPC: 1.9875
EPOCH ENDS
EPOCH STARTS
TH0 ROB: 4 LSQ: 4 IQ: 0 IPC: 0.0001
TH1 ROB: 105 LSQ: 86 IQ: 96, IPC: 0.2138
TH2 ROB: 4 LSQ: 1 IQ: 0, IPC: 0.0001
TH3 ROB: 4 LSQ: 3 IQ: 0, IPC: 1.9819
EPOCH ENDS
EPOCH STARTS
TH0 ROB: 4 LSQ: 4 IQ: 0 IPC: 0.0001
TH1 ROB: 105 LSQ: 86 IQ: 96, IPC: 0.2193
TH2 ROB: 4 LSQ: 1 IQ: 0, IPC: 0.0001
TH3 ROB: 4 LSQ: 3 IQ: 0, IPC: 1.9764
EPOCH ENDS
EPOCH STARTS
TH0 ROB: 4 LSQ: 4 IQ: 0 IPC: 0.0001
TH1 ROB: 106 LSQ: 87 IQ: 96, IPC: 0.2247
TH2 ROB: 4 LSQ: 1 IQ: 0, IPC: 0.0001
TH3 ROB: 4 LSQ: 3 IQ: 0, IPC: 1.9710
EPOCH ENDS
EPOCH STARTS
TH0 ROB: 4 LSQ: 4 IQ: 0 IPC: 0.0001
TH1 ROB: 105 LSQ: 87 IQ: 96, IPC: 0.2302
TH2 ROB: 4 LSQ: 1 IQ: 0, IPC: 0.0001
TH3 ROB: 4 LSQ: 3 IQ: 0, IPC: 1.9655
EPOCH ENDS
EPOCH STARTS
TH0 ROB: 4 LSQ: 4 IQ: 0 IPC: 0.0001
TH1 ROB: 105 LSQ: 86 IQ: 96, IPC: 0.2356
TH2 ROB: 4 LSQ: 1 IQ: 0, IPC: 0.0001
TH3 ROB: 4 LSQ: 3 IQ: 0, IPC: 1.9601
EPOCH ENDS
EPOCH STARTS
TH0 ROB: 4 LSQ: 4 IQ: 0 IPC: 0.0001
TH1 ROB: 105 LSQ: 86 IQ: 96, IPC: 0.2410
TH2 ROB: 4 LSQ: 1 IQ: 0, IPC: 0.0001
TH3 ROB: 4 LSQ: 3 IQ: 0, IPC: 1.9547
EPOCH ENDS
EPOCH STARTS
TH0 ROB: 4 LSQ: 4 IQ: 0 IPC: 0.0001
TH1 ROB: 105 LSQ: 86 IQ: 96, IPC: 0.2464
TH2 ROB: 4 LSQ: 1 IQ: 0, IPC: 0.0001
TH3 ROB: 4 LSQ: 3 IQ: 0, IPC: 1.9494
EPOCH ENDS
EPOCH STARTS
TH0 ROB: 4 LSQ: 4 IQ: 0 IPC: 0.0001
TH1 ROB: 105 LSQ: 86 IQ: 96, IPC: 0.2517
TH2 ROB: 4 LSQ: 1 IQ: 0, IPC: 0.0001
TH3 ROB: 4 LSQ: 3 IQ: 0, IPC: 1.9440
EPOCH ENDS
EPOCH STARTS
TH0 ROB: 4 LSQ: 4 IQ: 0 IPC: 0.0001
TH1 ROB: 105 LSQ: 87 IQ: 96, IPC: 0.2570
TH2 ROB: 4 LSQ: 1 IQ: 0, IPC: 0.0001
TH3 ROB: 4 LSQ: 3 IQ: 0, IPC: 1.9387
EPOCH ENDS
EPOCH STARTS
TH0 ROB: 4 LSQ: 4 IQ: 0 IPC: 0.0001
TH1 ROB: 105 LSQ: 86 IQ: 96, IPC: 0.2622
TH2 ROB: 4 LSQ: 1 IQ: 0, IPC: 0.0001
TH3 ROB: 4 LSQ: 3 IQ: 0, IPC: 1.9335
EPOCH ENDS
EPOCH STARTS
TH0 ROB: 4 LSQ: 4 IQ: 0 IPC: 0.0001
TH1 ROB: 105 LSQ: 86 IQ: 96, IPC: 0.2675
TH2 ROB: 4 LSQ: 1 IQ: 0, IPC: 0.0001
TH3 ROB: 4 LSQ: 3 IQ: 0, IPC: 1.9282
EPOCH ENDS
EPOCH STARTS
TH0 ROB: 4 LSQ: 4 IQ: 0 IPC: 0.0001
TH1 ROB: 105 LSQ: 86 IQ: 96, IPC: 0.2727
TH2 ROB: 4 LSQ: 1 IQ: 0, IPC: 0.0001
TH3 ROB: 4 LSQ: 3 IQ: 0, IPC: 1.9230
EPOCH ENDS
EPOCH STARTS
TH0 ROB: 4 LSQ: 4 IQ: 0 IPC: 0.0001
TH1 ROB: 105 LSQ: 87 IQ: 96, IPC: 0.2779
TH2 ROB: 4 LSQ: 1 IQ: 0, IPC: 0.0001
TH3 ROB: 4 LSQ: 3 IQ: 0, IPC: 1.9178
EPOCH ENDS
EPOCH STARTS
TH0 ROB: 4 LSQ: 4 IQ: 0 IPC: 0.0001
TH1 ROB: 105 LSQ: 88 IQ: 96, IPC: 0.2830
TH2 ROB: 4 LSQ: 1 IQ: 0, IPC: 0.0001
TH3 ROB: 4 LSQ: 3 IQ: 0, IPC: 1.9127
EPOCH ENDS
EPOCH STARTS
TH0 ROB: 4 LSQ: 4 IQ: 0 IPC: 0.0001
TH1 ROB: 104 LSQ: 85 IQ: 96, IPC: 0.2882
TH2 ROB: 4 LSQ: 1 IQ: 0, IPC: 0.0001
TH3 ROB: 4 LSQ: 3 IQ: 0, IPC: 1.9075
EPOCH ENDS
EPOCH STARTS
TH0 ROB: 4 LSQ: 4 IQ: 0 IPC: 0.0001
TH1 ROB: 104 LSQ: 85 IQ: 96, IPC: 0.2933
TH2 ROB: 4 LSQ: 1 IQ: 0, IPC: 0.0001
TH3 ROB: 4 LSQ: 3 IQ: 0, IPC: 1.9024
EPOCH ENDS
EPOCH STARTS
TH0 ROB: 4 LSQ: 4 IQ: 0 IPC: 0.0001
TH1 ROB: 105 LSQ: 86 IQ: 96, IPC: 0.2983
TH2 ROB: 4 LSQ: 1 IQ: 0, IPC: 0.0001
TH3 ROB: 4 LSQ: 3 IQ: 0, IPC: 1.8974
EPOCH ENDS
EPOCH STARTS
TH0 ROB: 4 LSQ: 4 IQ: 0 IPC: 0.0001
TH1 ROB: 105 LSQ: 87 IQ: 96, IPC: 0.3034
TH2 ROB: 4 LSQ: 1 IQ: 0, IPC: 0.0001
TH3 ROB: 4 LSQ: 3 IQ: 0, IPC: 1.8923
EPOCH ENDS
EPOCH STARTS
TH0 ROB: 4 LSQ: 4 IQ: 0 IPC: 0.0001
TH1 ROB: 106 LSQ: 87 IQ: 96, IPC: 0.3084
TH2 ROB: 4 LSQ: 1 IQ: 0, IPC: 0.0001
TH3 ROB: 4 LSQ: 3 IQ: 0, IPC: 1.8873
EPOCH ENDS
EPOCH STARTS
TH0 ROB: 4 LSQ: 4 IQ: 0 IPC: 0.0001
TH1 ROB: 104 LSQ: 85 IQ: 96, IPC: 0.3134
TH2 ROB: 4 LSQ: 1 IQ: 0, IPC: 0.0001
TH3 ROB: 4 LSQ: 3 IQ: 0, IPC: 1.8823
EPOCH ENDS
EPOCH STARTS
TH0 ROB: 4 LSQ: 4 IQ: 0 IPC: 0.0001
TH1 ROB: 104 LSQ: 85 IQ: 96, IPC: 0.3184
TH2 ROB: 4 LSQ: 1 IQ: 0, IPC: 0.0001
TH3 ROB: 4 LSQ: 3 IQ: 0, IPC: 1.8773
EPOCH ENDS
EPOCH STARTS
TH0 ROB: 4 LSQ: 4 IQ: 0 IPC: 0.0001
TH1 ROB: 104 LSQ: 85 IQ: 96, IPC: 0.3233
TH2 ROB: 4 LSQ: 1 IQ: 0, IPC: 0.0001
TH3 ROB: 4 LSQ: 3 IQ: 0, IPC: 1.8724
EPOCH ENDS
EPOCH STARTS
TH0 ROB: 4 LSQ: 4 IQ: 0 IPC: 0.0001
TH1 ROB: 105 LSQ: 87 IQ: 96, IPC: 0.3282
TH2 ROB: 4 LSQ: 1 IQ: 0, IPC: 0.0001
TH3 ROB: 4 LSQ: 3 IQ: 0, IPC: 1.8675
EPOCH ENDS
EPOCH STARTS
TH0 ROB: 4 LSQ: 4 IQ: 0 IPC: 0.0001
TH1 ROB: 105 LSQ: 86 IQ: 96, IPC: 0.3331
TH2 ROB: 4 LSQ: 1 IQ: 0, IPC: 0.0001
TH3 ROB: 4 LSQ: 3 IQ: 0, IPC: 1.8626
EPOCH ENDS
EPOCH STARTS
TH0 ROB: 4 LSQ: 4 IQ: 0 IPC: 0.0001
TH1 ROB: 104 LSQ: 85 IQ: 96, IPC: 0.3380
TH2 ROB: 4 LSQ: 1 IQ: 0, IPC: 0.0001
TH3 ROB: 4 LSQ: 3 IQ: 0, IPC: 1.8577
EPOCH ENDS
EPOCH STARTS
TH0 ROB: 4 LSQ: 4 IQ: 0 IPC: 0.0001
TH1 ROB: 104 LSQ: 85 IQ: 96, IPC: 0.3428
TH2 ROB: 4 LSQ: 1 IQ: 0, IPC: 0.0001
TH3 ROB: 4 LSQ: 3 IQ: 0, IPC: 1.8529
EPOCH ENDS
EPOCH STARTS
TH0 ROB: 4 LSQ: 4 IQ: 0 IPC: 0.0001
TH1 ROB: 104 LSQ: 87 IQ: 96, IPC: 0.3476
TH2 ROB: 4 LSQ: 1 IQ: 0, IPC: 0.0001
TH3 ROB: 4 LSQ: 3 IQ: 0, IPC: 1.8481
EPOCH ENDS
EPOCH STARTS
TH0 ROB: 4 LSQ: 4 IQ: 0 IPC: 0.0001
TH1 ROB: 105 LSQ: 87 IQ: 96, IPC: 0.3524
TH2 ROB: 4 LSQ: 1 IQ: 0, IPC: 0.0001
TH3 ROB: 4 LSQ: 3 IQ: 0, IPC: 1.8433
EPOCH ENDS
EPOCH STARTS
TH0 ROB: 4 LSQ: 4 IQ: 0 IPC: 0.0001
TH1 ROB: 105 LSQ: 85 IQ: 96, IPC: 0.3572
TH2 ROB: 4 LSQ: 1 IQ: 0, IPC: 0.0001
TH3 ROB: 4 LSQ: 3 IQ: 0, IPC: 1.8385
EPOCH ENDS
EPOCH STARTS
TH0 ROB: 4 LSQ: 4 IQ: 0 IPC: 0.0001
TH1 ROB: 104 LSQ: 85 IQ: 96, IPC: 0.3619
TH2 ROB: 4 LSQ: 1 IQ: 0, IPC: 0.0001
TH3 ROB: 4 LSQ: 3 IQ: 0, IPC: 1.8338
EPOCH ENDS
EPOCH STARTS
TH0 ROB: 4 LSQ: 4 IQ: 0 IPC: 0.0001
TH1 ROB: 104 LSQ: 85 IQ: 96, IPC: 0.3666
TH2 ROB: 4 LSQ: 1 IQ: 0, IPC: 0.0001
TH3 ROB: 4 LSQ: 3 IQ: 0, IPC: 1.8291
EPOCH ENDS
EPOCH STARTS
TH0 ROB: 4 LSQ: 4 IQ: 0 IPC: 0.0001
TH1 ROB: 104 LSQ: 86 IQ: 96, IPC: 0.3713
TH2 ROB: 4 LSQ: 1 IQ: 0, IPC: 0.0001
TH3 ROB: 4 LSQ: 3 IQ: 0, IPC: 1.8244
EPOCH ENDS
EPOCH STARTS
TH0 ROB: 4 LSQ: 4 IQ: 0 IPC: 0.0001
TH1 ROB: 107 LSQ: 88 IQ: 96, IPC: 0.3760
TH2 ROB: 4 LSQ: 1 IQ: 0, IPC: 0.0001
TH3 ROB: 4 LSQ: 3 IQ: 0, IPC: 1.8197
EPOCH ENDS
EPOCH STARTS
TH0 ROB: 4 LSQ: 4 IQ: 0 IPC: 0.0001
TH1 ROB: 105 LSQ: 86 IQ: 96, IPC: 0.3806
TH2 ROB: 4 LSQ: 1 IQ: 0, IPC: 0.0001
TH3 ROB: 4 LSQ: 3 IQ: 0, IPC: 1.8151
EPOCH ENDS
EPOCH STARTS
TH0 ROB: 4 LSQ: 4 IQ: 0 IPC: 0.0001
TH1 ROB: 105 LSQ: 85 IQ: 96, IPC: 0.3853
TH2 ROB: 4 LSQ: 1 IQ: 0, IPC: 0.0001
TH3 ROB: 4 LSQ: 3 IQ: 0, IPC: 1.8105
EPOCH ENDS
EPOCH STARTS
TH0 ROB: 4 LSQ: 4 IQ: 0 IPC: 0.0001
TH1 ROB: 104 LSQ: 85 IQ: 96, IPC: 0.3899
TH2 ROB: 4 LSQ: 1 IQ: 0, IPC: 0.0001
TH3 ROB: 4 LSQ: 3 IQ: 0, IPC: 1.8059
EPOCH ENDS
EPOCH STARTS
[...]
Thread_3_cpred_bimod.retstack_pops            0 # total number of address popped off of ret-addr stack
Thread_3_cpred_bimod.used_ras.PP            0 # total number of RAS predictions used
Thread_3_cpred_bimod.ras_hits.PP            0 # total number of RAS hits
Thread_3_cpred_bimod.ras_rate.PP <error: divide by zero> # RAS prediction rate (i.e., RAS hits/used RAS)
il1.accesses              549019470 # total number of accesses
il1.hits                  549019466 # total number of hits
il1.misses                        4 # total number of misses
il1.replacements                  4 # total number of replacements
il1.writebacks                    0 # total number of writebacks
il1.invalidations                 0 # total number of invalidations
il1.miss_rate                0.0000 # miss rate (i.e., misses/ref)
il1.repl_rate                0.0000 # replacement rate (i.e., repls/ref)
il1.wb_rate                  0.0000 # writeback rate (i.e., wrbks/ref)
il1.inv_rate                 0.0000 # invalidation rate (i.e., invs/ref)
dl1.accesses              450979079 # total number of accesses
dl1.hits                  411763486 # total number of hits
dl1.misses                 39215593 # total number of misses
dl1.replacements           39215593 # total number of replacements
dl1.writebacks             39215520 # total number of writebacks
dl1.invalidations                 0 # total number of invalidations
dl1.miss_rate                0.0870 # miss rate (i.e., misses/ref)
dl1.repl_rate                0.0870 # replacement rate (i.e., repls/ref)
dl1.wb_rate                  0.0870 # writeback rate (i.e., wrbks/ref)
dl1.inv_rate                 0.0000 # invalidation rate (i.e., invs/ref)
ul2.accesses               78431117 # total number of accesses
ul2.hits                   58822480 # total number of hits
ul2.misses                 19608637 # total number of misses
ul2.replacements           19608637 # total number of replacements
ul2.writebacks             19605952 # total number of writebacks
ul2.invalidations                 0 # total number of invalidations
ul2.miss_rate                0.2500 # miss rate (i.e., misses/ref)
ul2.repl_rate                0.2500 # replacement rate (i.e., repls/ref)
ul2.wb_rate                  0.2500 # writeback rate (i.e., wrbks/ref)
ul2.inv_rate                 0.0000 # invalidation rate (i.e., invs/ref)
itlb.accesses             549019470 # total number of accesses
itlb.hits                 549019470 # total number of hits
itlb.misses                       0 # total number of misses
itlb.replacements                 0 # total number of replacements
itlb.writebacks                   0 # total number of writebacks
itlb.invalidations                0 # total number of invalidations
itlb.miss_rate               0.0000 # miss rate (i.e., misses/ref)
itlb.repl_rate               0.0000 # replacement rate (i.e., repls/ref)
itlb.wb_rate                 0.0000 # writeback rate (i.e., wrbks/ref)
itlb.inv_rate                0.0000 # invalidation rate (i.e., invs/ref)
dtlb.accesses             450979122 # total number of accesses
dtlb.hits                 450672733 # total number of hits
dtlb.misses                  306389 # total number of misses
dtlb.replacements            306389 # total number of replacements
dtlb.writebacks                   0 # total number of writebacks
dtlb.invalidations                0 # total number of invalidations
dtlb.miss_rate               0.0007 # miss rate (i.e., misses/ref)
dtlb.repl_rate               0.0007 # replacement rate (i.e., repls/ref)
dtlb.wb_rate                 0.0000 # writeback rate (i.e., wrbks/ref)
dtlb.inv_rate                0.0000 # invalidation rate (i.e., invs/ref)
sim_invalid_addrs                 0 # total non-speculative bogus addresses seen (debug var)
ld_text_base           0x0120000000 # program text (code) segment base
mem->ld_text_size            401408 # program text (code) size in bytes
mem->ld_data_base      0x0140000000 # program initialized data segment base
mem->ld_data_size             70816 # program init'ed `.data' and uninit'ed `.bss' size in bytes
mem->ld_stack_base     0x011ff9b000 # program stack segment base (highest address in stack)
mem->ld_stack_size            16384 # program initial stack size
mem->ld_prog_entry     0x012000ff40 # program entry point (initial PC)
mem->ld_environ_base   0x011ff97000 # program environment base address address
mem->ld_target_big_endian            0 # target executable endian-ness, non-zero if big endian
mem_0.page_count               2849 # total number of pages allocated
mem_0.page_mem               22792k # total size of memory pages allocated
mem_0.ptab_misses              4989 # total first level page table misses
mem_0.ptab_accesses       152288006 # total page table accesses
mem_0.ptab_miss_rate         0.0000 # first level page table miss rate
ld_text_base           0x0120000000 # program text (code) segment base
mem->ld_text_size            163840 # program text (code) size in bytes
mem->ld_data_base      0x0140000000 # program initialized data segment base
mem->ld_data_size             79168 # program init'ed `.data' and uninit'ed `.bss' size in bytes
mem->ld_stack_base     0x011ff9b000 # program stack segment base (highest address in stack)
mem->ld_stack_size            16384 # program initial stack size
mem->ld_prog_entry     0x0120000300 # program entry point (initial PC)
mem->ld_environ_base   0x011ff97000 # program environment base address address
mem->ld_target_big_endian            0 # target executable endian-ness, non-zero if big endian
mem_0.page_count             151043 # total number of pages allocated
mem_0.page_mem               22792k # total size of memory pages allocated
mem_0.ptab_misses            167279 # total first level page table misses
mem_0.ptab_accesses      8196079200 # total page table accesses
mem_0.ptab_miss_rate         0.0000 # first level page table miss rate
ld_text_base           0x0120000000 # program text (code) segment base
mem->ld_text_size            974848 # program text (code) size in bytes
mem->ld_data_base      0x0140000000 # program initialized data segment base
mem->ld_data_size             79184 # program init'ed `.data' and uninit'ed `.bss' size in bytes
mem->ld_stack_base     0x011ff9b000 # program stack segment base (highest address in stack)
mem->ld_stack_size            16384 # program initial stack size
mem->ld_prog_entry     0x0120015580 # program entry point (initial PC)
mem->ld_environ_base   0x011ff97000 # program environment base address address
mem->ld_target_big_endian            0 # target executable endian-ness, non-zero if big endian
mem_0.page_count                162 # total number of pages allocated
mem_0.page_mem               22792k # total size of memory pages allocated
mem_0.ptab_misses             33047 # total first level page table misses
mem_0.ptab_accesses        71978298 # total page table accesses
mem_0.ptab_miss_rate         0.0000 # first level page table miss rate
ld_text_base           0x0120000000 # program text (code) segment base
mem->ld_text_size            303104 # program text (code) size in bytes
mem->ld_data_base      0x0140000000 # program initialized data segment base
mem->ld_data_size           2658496 # program init'ed `.data' and uninit'ed `.bss' size in bytes
mem->ld_stack_base     0x011ff9b000 # program stack segment base (highest address in stack)
mem->ld_stack_size            16384 # program initial stack size
mem->ld_prog_entry     0x0120000300 # program entry point (initial PC)
mem->ld_environ_base   0x011ff97000 # program environment base address address
mem->ld_target_big_endian            0 # target executable endian-ness, non-zero if big endian
mem_0.page_count               7413 # total number of pages allocated
mem_0.page_mem               22792k # total size of memory pages allocated
mem_0.ptab_misses              7538 # total first level page table misses
mem_0.ptab_accesses       406258284 # total page table accesses
mem_0.ptab_miss_rate         0.0000 # first level page table miss rate
rename_power           170831330.8521 # total power usage of rename unit
bpred_power            1130781596.2667 # total power usage of bpred unit
window_power           3569047442.0555 # total power usage of instruction window
lsq_power              1992927240.4008 # total power usage of load/store queue
regfile_power          893118024.3201 # total power usage of arch. regfile
icache_power           1058450497.7872 # total power usage of icache
dcache_power           2311943843.8834 # total power usage of dcache
dcache2_power          1300033981.9295 # total power usage of dcache2
alu_power              4735293863.5147 # total power usage of alu
falu_power             3570261239.8660 # total power usage of falu
resultbus_power        2253231538.7770 # total power usage of resultbus
clock_power            7621587330.2502 # total power usage of clock
avg_rename_power             0.6833 # avg power usage of rename unit
avg_bpred_power              4.5231 # avg power usage of bpred unit
avg_window_power            14.2762 # avg power usage of instruction window
avg_lsq_power                7.9717 # avg power usage of lsq
avg_regfile_power            3.5725 # avg power usage of arch. regfile
avg_icache_power             4.2338 # avg power usage of icache
avg_dcache_power             9.2478 # avg power usage of dcache
avg_dcache2_power            5.2001 # avg power usage of dcache2
avg_alu_power               18.9412 # avg power usage of alu
avg_falu_power              14.2810 # avg power usage of falu
avg_resultbus_power          9.0129 # avg power usage of resultbus
avg_clock_power             30.4863 # avg power usage of clock
fetch_stage_power      2189232094.0540 # total power usage of fetch stage
dispatch_stage_power   170831330.8521 # total power usage of dispatch stage
issue_stage_power      16162477910.5610 # total power usage of issue stage
avg_fetch_power              8.7569 # average power of fetch unit per cycle
avg_dispatch_power           0.6833 # average power of dispatch unit per cycle
avg_issue_power             64.6499 # average power of issue unit per cycle
total_power            27037246690.0374 # total power per cycle
avg_total_power_cycle      108.1490 # average total power per cycle
avg_total_power_cycle_nofp_nod2      88.6678 # average total power per cycle
avg_total_power_insn        49.2464 # average total power per insn
avg_total_power_insn_nofp_nod2      40.3755 # average total power per insn
rename_power_cc1       170830844.3245 # total power usage of rename unit_cc1
bpred_power_cc1        88689154.7744 # total power usage of bpred unit_cc1
window_power_cc1       3481578186.4728 # total power usage of instruction window_cc1
lsq_power_cc1          1750261262.1461 # total power usage of lsq_cc1
regfile_power_cc1      768140162.6816 # total power usage of arch. regfile_cc1
icache_power_cc1       1058447089.5766 # total power usage of icache_cc1
dcache_power_cc1       2493266167.9135 # total power usage of dcache_cc1
dcache2_power_cc1      203926434.4219 # total power usage of dcache2_cc1
alu_power_cc1          1165030517.3426 # total power usage of alu_cc1
resultbus_power_cc1    1891235388.6761 # total power usage of resultbus_cc1
clock_power_cc1        5416098210.1455 # total power usage of clock_cc1
avg_rename_power_cc1         0.6833 # avg power usage of rename unit_cc1
avg_bpred_power_cc1          0.3548 # avg power usage of bpred unit_cc1
avg_window_power_cc1        13.9263 # avg power usage of instruction window_cc1
avg_lsq_power_cc1            7.0010 # avg power usage of lsq_cc1
avg_regfile_power_cc1        3.0726 # avg power usage of arch. regfile_cc1
avg_icache_power_cc1         4.2338 # avg power usage of icache_cc1
avg_dcache_power_cc1         9.9731 # avg power usage of dcache_cc1
avg_dcache2_power_cc1        0.8157 # avg power usage of dcache2_cc1
avg_alu_power_cc1            4.6601 # avg power usage of alu_cc1
avg_resultbus_power_cc1       7.5649 # avg power usage of resultbus_cc1
avg_clock_power_cc1         21.6644 # avg power usage of clock_cc1
fetch_stage_power_cc1  1147136244.3510 # total power usage of fetch stage_cc1
dispatch_stage_power_cc1 170830844.3245 # total power usage of dispatch stage_cc1
issue_stage_power_cc1  10985297956.9730 # total power usage of issue stage_cc1
avg_fetch_power_cc1          4.5885 # average power of fetch unit per cycle_cc1
avg_dispatch_power_cc1       0.6833 # average power of dispatch unit per cycle_cc1
avg_issue_power_cc1         43.9412 # average power of issue unit per cycle_cc1
total_power_cycle_cc1  18487503418.4756 # total power per cycle_cc1
avg_total_power_cycle_cc1      73.9500 # average total power per cycle_cc1
avg_total_power_insn_cc1      33.6737 # average total power per insn_cc1
rename_power_cc2       93789722.1229 # total power usage of rename unit_cc2
bpred_power_cc2        44344627.1416 # total power usage of bpred unit_cc2
window_power_cc2       3429181885.0576 # total power usage of instruction window_cc2
lsq_power_cc2          993504817.6607 # total power usage of lsq_cc2
regfile_power_cc2      132907270.2028 # total power usage of arch. regfile_cc2
icache_power_cc2       1058447089.5766 # total power usage of icache_cc2
dcache_power_cc2       2085276613.9870 # total power usage of dcache_cc2
dcache2_power_cc2      203926234.2167 # total power usage of dcache2_cc2
alu_power_cc2          616781332.6864 # total power usage of alu_cc2
resultbus_power_cc2    1556340261.9772 # total power usage of resultbus_cc2
clock_power_cc2        4213860362.9076 # total power usage of clock_cc2
avg_rename_power_cc2         0.3752 # avg power usage of rename unit_cc2
avg_bpred_power_cc2          0.1774 # avg power usage of bpred unit_cc2
avg_window_power_cc2        13.7167 # avg power usage of instruction window_cc2
avg_lsq_power_cc2            3.9740 # avg power usage of instruction lsq_cc2
avg_regfile_power_cc2        0.5316 # avg power usage of arch. regfile_cc2
avg_icache_power_cc2         4.2338 # avg power usage of icache_cc2
avg_dcache_power_cc2         8.3411 # avg power usage of dcache_cc2
avg_dcache2_power_cc2        0.8157 # avg power usage of dcache2_cc2
avg_alu_power_cc2            2.4671 # avg power usage of alu_cc2
avg_resultbus_power_cc2       6.2254 # avg power usage of resultbus_cc2
avg_clock_power_cc2         16.8554 # avg power usage of clock_cc2
fetch_stage_power_cc2  1102791716.7182 # total power usage of fetch stage_cc2
dispatch_stage_power_cc2 93789722.1229 # total power usage of dispatch stage_cc2
issue_stage_power_cc2  8885011145.5856 # total power usage of issue stage_cc2
avg_fetch_power_cc2          4.4112 # average power of fetch unit per cycle_cc2
avg_dispatch_power_cc2       0.3752 # average power of dispatch unit per cycle_cc2
avg_issue_power_cc2         35.5400 # average power of issue unit per cycle_cc2
total_power_cycle_cc2  14428360217.5371 # total power per cycle_cc2
avg_total_power_cycle_cc2      57.7134 # average total power per cycle_cc2
avg_total_power_insn_cc2      26.2802 # average total power per insn_cc2
rename_power_cc3       93789770.7757 # total power usage of rename unit_cc3
bpred_power_cc3        148553871.6728 # total power usage of bpred unit_cc3
window_power_cc3       3429182486.1390 # total power usage of instruction window_cc3
lsq_power_cc3          1017771411.3353 # total power usage of lsq_cc3
regfile_power_cc3      134658727.1500 # total power usage of arch. regfile_cc3
icache_power_cc3       1058447430.3977 # total power usage of icache_cc3
dcache_power_cc3       2085277211.3933 # total power usage of dcache_cc3
dcache2_power_cc3      313536995.2358 # total power usage of dcache2_cc3
alu_power_cc3          973807672.2432 # total power usage of alu_cc3
resultbus_power_cc3    1556340679.2757 # total power usage of resultbus_cc3
clock_power_cc3        4418861601.1586 # total power usage of clock_cc3
avg_rename_power_cc3         0.3752 # avg power usage of rename unit_cc3
avg_bpred_power_cc3          0.5942 # avg power usage of bpred unit_cc3
avg_window_power_cc3        13.7167 # avg power usage of instruction window_cc3
avg_lsq_power_cc3            4.0711 # avg power usage of instruction lsq_cc3
avg_regfile_power_cc3        0.5386 # avg power usage of arch. regfile_cc3
avg_icache_power_cc3         4.2338 # avg power usage of icache_cc3
avg_dcache_power_cc3         8.3411 # avg power usage of dcache_cc3
avg_dcache2_power_cc3        1.2541 # avg power usage of dcache2_cc3
avg_alu_power_cc3            3.8952 # avg power usage of alu_cc3
avg_resultbus_power_cc3       6.2254 # avg power usage of resultbus_cc3
avg_clock_power_cc3         17.6754 # avg power usage of clock_cc3
fetch_stage_power_cc3  1207001302.0705 # total power usage of fetch stage_cc3
dispatch_stage_power_cc3 93789770.7757 # total power usage of dispatch stage_cc3
issue_stage_power_cc3  9375916455.6223 # total power usage of issue stage_cc3
avg_fetch_power_cc3          4.8280 # average power of fetch unit per cycle_cc3
avg_dispatch_power_cc3       0.3752 # average power of dispatch unit per cycle_cc3
avg_issue_power_cc3         37.5037 # average power of issue unit per cycle_cc3
total_power_cycle_cc3  15230227856.7770 # total power per cycle_cc3
avg_total_power_cycle_cc3      60.9209 # average total power per cycle_cc3
avg_total_power_insn_cc3      27.7408 # average total power per insn_cc3
total_rename_access       549019442 # total number accesses of rename unit
total_bpred_access         19607954 # total number accesses of bpred unit
total_window_access      2529408466 # total number accesses of instruction window
total_lsq_access          450979136 # total number accesses of load/store queue
total_regfile_access      509803007 # total number accesses of arch. regfile
total_icache_access       549019674 # total number accesses of icache
total_dcache_access       450979079 # total number accesses of dcache
total_dcache2_access       78431117 # total number accesses of dcache2
total_alu_access          529411212 # total number accesses of alu
total_resultbus_access    823527783 # total number accesses of resultbus
avg_rename_access            2.1961 # avg number accesses of rename unit
avg_bpred_access             0.0784 # avg number accesses of bpred unit
avg_window_access           10.1176 # avg number accesses of instruction window
avg_lsq_access               1.8039 # avg number accesses of lsq
avg_regfile_access           2.0392 # avg number accesses of arch. regfile
avg_icache_access            2.1961 # avg number accesses of icache
avg_dcache_access            1.8039 # avg number accesses of dcache
avg_dcache2_access           0.3137 # avg number accesses of dcache2
avg_alu_access               2.1176 # avg number accesses of alu
avg_resultbus_access         3.2941 # avg number accesses of resultbus
max_rename_access                 4 # max number accesses of rename unit
max_bpred_access                  3 # max number accesses of bpred unit
max_window_access                47 # max number accesses of instruction window
max_lsq_access                    3 # max number accesses of load/store queue
max_regfile_access               11 # max number accesses of arch. regfile
max_icache_access                 4 # max number accesses of icache
max_dcache_access                 4 # max number accesses of dcache
max_dcache2_access                4 # max number accesses of dcache2
max_alu_access                    4 # max number accesses of alu
max_resultbus_access             39 # max number accesses of resultbus
max_cycle_power_cc1        185.2500 # maximum cycle power usage of cc1
max_cycle_power_cc2        172.8801 # maximum cycle power usage of cc2
max_cycle_power_cc3        175.5805 # maximum cycle power usage of cc3


******* SMT STATS *******
THROUGHPUT IPC: 2.1961

TH0 IPC: 0.0000

TH1 IPC: 2.1249

TH2 IPC: 0.0000

TH3 IPC: 0.0712

