sim-outorder: SimpleScalar/Alpha Tool Set version 3.0 of August, 2003.
Copyright (c) 1994-2003 by Todd M. Austin, Ph.D. and SimpleScalar, LLC.
All Rights Reserved. This version of SimpleScalar is licensed for academic
non-commercial use.  No portion of this work may be used by any commercial
entity, or for any commercial purpose, without the prior written permission
of SimpleScalar, LLC (info@simplescalar.com).


Processor Parameters:
Issue Width: 4
Window Size: 224
Number of Virtual Registers: 32
Number of Physical Registers: 256
Datapath Width: 64
Total Power Consumption: 110.149
Branch Predictor Power Consumption: 4.52313  (4.18%)
 branch target buffer power (W): 4.16837
 local predict power (W): 0.0879711
 global predict power (W): 0.0996078
 chooser power (W): 0.0702439
 RAS power (W): 0.0969383
Rename Logic Power Consumption: 0.683325  (0.632%)
 Instruction Decode Power (W): 0.0159915
 RAT decode_power (W): 0.113514
 RAT wordline_power (W): 0.0493708
 RAT bitline_power (W): 0.493541
 DCL Comparators (W): 0.0109075
Instruction Window Power Consumption: 14.2762  (13.2%)
 tagdrive (W): 0.827064
 tagmatch (W): 0.360565
 Selection Logic (W): 0.0885831
 decode_power (W): 1.16922
 wordline_power (W): 0.0844643
 bitline_power (W): 11.7463
Load/Store Queue Power Consumption: 7.97171  (7.37%)
 tagdrive (W): 3.75392
 tagmatch (W): 1.61238
 decode_power (W): 0.181222
 wordline_power (W): 0.0150119
 bitline_power (W): 2.40917
Arch. Register File Power Consumption: 3.57247  (3.3%)
 decode_power (W): 0.113514
 wordline_power (W): 0.0844643
 bitline_power (W): 3.37449
Result Bus Power Consumption: 9.01293  (8.33%)
Total Clock Power: 30.4863  (28.2%)
Int ALU Power: 4.66013  (4.31%)
FP ALU Power: 14.281  (13.2%)
Instruction Cache Power Consumption: 3.97049  (3.67%)
 decode_power (W): 1.67268
 wordline_power (W): 0.028656
 bitline_power (W): 1.5122
 senseamp_power (W): 0.096
 tagarray_power (W): 0.660946
Itlb_power (W): 0.263317 (0.243%)
Data Cache Power Consumption: 8.34726  (7.72%)
 decode_power (W): 1.44978
 wordline_power (W): 0.196735
 bitline_power (W): 4.58765
 senseamp_power (W): 0.768
 tagarray_power (W): 1.34509
Dtlb_power (W): 0.900515 (0.833%)
Level 2 Cache Power Consumption: 5.20014 (4.81%)
 decode_power (W): 0.41817
 wordline_power (W): 0.0430878
 bitline_power (W): 3.0244
 senseamp_power (W): 0.192
 tagarray_power (W): 1.52247
sim-main: initalizing context 0:bwavesNS.1.arg
args: 0:./bwaves.base.alpha 
sim: loading binary...
sim: loading ./bwaves.base.alpha
sim-main: initalizing context 1:omnetppNS.1.arg
args: 0:./omnetpp.base.alpha 1:./omnetpp.ini 
sim: loading binary...
sim: loading ./omnetpp.base.alpha
warning: section `.comment' ignored...
sim-main: initalizing context 2:perlbenchNS.1.arg
args: 0:./perlbench.base.alpha 1:-I./perlbench/lib 2:./checkspam.pl 3:2500 4:5 5:25 6:11 7:150 8:1 9:1 10:1 11:1 
sim: loading binary...
sim: loading ./perlbench.base.alpha
warning: section `.comment' ignored...
sim-main: initalizing context 3:sjengNS.1.arg
args: 0:./sjeng.base.alpha 1:./ref.txt 
sim: loading binary...
sim: loading ./sjeng.base.alpha
sim: command line: ../m-sim_v2.0/sim-outorder bwavesNS.1.arg omnetppNS.1.arg perlbenchNS.1.arg sjengNS.1.arg 

sim: simulation started @ Mon Aug  8 18:37:50 2022, options follow:

sim-outorder: This simulator implements a very detailed out-of-order issue
superscalar processor with a two-level memory system and speculative
execution support.  This simulator is a performance simulator, tracking the
latency of all pipeline operations.

# -config                     # load configuration from a file
# -dumpconfig                 # dump configuration to a file
# -h                    false # print help message    
# -v                    false # verbose operation     
# -d                    false # enable debug message  
# -i                    false # start in Dlite debugger
-seed                       1 # random number generator seed (0 for timer seed)
# -q                    false # initialize and terminate immediately
# -redir:sim           <null> # redirect simulator output to file (non-interactive only)
# -redir:prog          <null> # redirect simulated program output to file
-nice                       0 # simulator scheduling priority
-max:inst           250000000 # maximum number of inst's to execute
-fastfwd             10000000 # number of insts skipped before timing starts
# -ptrace              <null> # generate pipetrace, i.e., <fname|stdout|stderr> <range>
-fetch:speed                1 # speed of front-end of machine relative to execution core
-bpred                  bimod # branch predictor type {nottaken|taken|perfect|bimod|2lev|comb}
-bpred:bimod     2048 # bimodal predictor config (<table size>)
-bpred:2lev      1 1024 8 0 # 2-level predictor config (<l1size> <l2size> <hist_size> <xor>)
-bpred:comb      1024 # combining predictor config (<meta_table_size>)
-bpred:ras                  8 # return address stack size (0 for no return stack)
-bpred:btb       512 4 # BTB config (<num_sets> <associativity>)
# -bpred:spec_update       <null> # speculative predictors update in {ID|WB} (default non-spec)
-cpred                  bimod # cache load-latency predictor type {nottaken|taken|perfect|bimod|2lev|comb}
-cpred:bimod     2048 # cache load-latency bimodal predictor config (<table size>)
-cpred:2lev      1 1024 8 0 # cache load-latency 2-level predictor config (<l1size> <l2size> <hist_size> <xor>)
-cpred:comb      1024 # cache load-latency combining predictor config (<meta_table_size>)
-cpred:ras                  0 # return address stack size (0 for no return stack)
-cpred:btb       512 4 # cache load-latency BTB config (<num_sets> <associativity>)
-decode:width               4 # instruction decode B/W (insts/cycle)
-issue:width                4 # instruction issue B/W (insts/cycle)
-issue:inorder          false # run pipeline with in-order issue
-issue:wrongpath         true # issue instructions down wrong execution paths
-commit:width               4 # instruction commit B/W (insts/cycle)
-rob:size                 224 # reorder buffer (ROB) size
-fetch:policy |icount|round_robin|       icount # fetch policy          
-recovery:model        squash # Alpha squash recovery or perfect predition: |squash|perfect|
-iq:size                   96 # issue queue (IQ) size 
-iq:issue_exec_delay            1 # minimum cycles between issue and execution
-fetch_rename_delay            4 # number of cycles between fetch and rename stages
-rename_dispatch_delay            1 # number cycles between rename and dispatch stages
-rf:size                  256 # register file (RF) size for each the INT and FP physical register file)
-lsq:size                 128 # load/store queue (LSQ) size
-cache:dl1       dl1:256:32:4:l # l1 data cache config, i.e., {<config>|none}
-cache:dl1lat               1 # l1 data cache hit latency (in cycles)
-cache:dl2       ul2:1024:64:8:l # l2 data cache config, i.e., {<config>|none}
-cache:dl2lat               6 # l2 data cache hit latency (in cycles)
-cache:il1       il1:512:32:2:l # l1 inst cache config, i.e., {<config>|dl1|dl2|none}
-cache:il1lat               1 # l1 instruction cache hit latency (in cycles)
-cache:il2                dl2 # l2 instruction cache config, i.e., {<config>|dl2|none}
-cache:il2lat               6 # l2 instruction cache hit latency (in cycles)
-cache:flush            false # flush caches on system calls
-cache:icompress        false # convert 64-bit inst addresses to 32-bit inst equivalents
-mem:lat         100 2 # memory access latency (<first_chunk> <inter_chunk>)
-mem:width                  8 # memory access bus width (in bytes)
-tlb:itlb        itlb:16:4096:4:l # instruction TLB config, i.e., {<config>|none}
-tlb:dtlb        dtlb:32:4096:4:l # data TLB config, i.e., {<config>|none}
-tlb:lat                   30 # inst/data TLB miss latency (in cycles)
-res:ialu                   4 # total number of integer ALU's available
-res:imult                  1 # total number of integer multiplier/dividers available
-res:memport                2 # total number of memory system ports available (to CPU)
-res:fpalu                  4 # total number of floating point ALU's available
-res:fpmult                 1 # total number of floating point multiplier/dividers available
# -pcstat              <null> # profile stat(s) against text addr's (mult uses ok)
-power:print_stats         true # print power statistics collected by wattch?

  Pipetrace range arguments are formatted as follows:

    {{@|#}<start>}:{{@|#|+}<end>}

  Both ends of the range are optional, if neither are specified, the entire
  execution is traced.  Ranges that start with a `@' designate an address
  range to be traced, those that start with an `#' designate a cycle count
  range.  All other range values represent an instruction count range.  The
  second argument, if specified with a `+', indicates a value relative
  to the first argument, e.g., 1000:+100 == 1000:1100.  Program symbols may
  be used in all contexts.

    Examples:   -ptrace FOO.trc #0:#1000
                -ptrace BAR.trc @2000:
                -ptrace BLAH.trc :1500
                -ptrace UXXE.trc :
                -ptrace FOOBAR.trc @main:+278

  Branch predictor configuration examples for 2-level predictor:
    Configurations:   N, M, W, X
      N   # entries in first level (# of shift register(s))
      W   width of shift register(s)
      M   # entries in 2nd level (# of counters, or other FSM)
      X   (yes-1/no-0) xor history and address for 2nd level index
    Sample predictors:
      GAg     : 1, W, 2^W, 0
      GAp     : 1, W, M (M > 2^W), 0
      PAg     : N, W, 2^W, 0
      PAp     : N, W, M (M == 2^(N+W)), 0
      gshare  : 1, W, 2^W, 1
  Predictor `comb' combines a bimodal and a 2-level predictor.

  The cache config parameter <config> has the following format:

    <name>:<nsets>:<bsize>:<assoc>:<repl>

    <name>   - name of the cache being defined
    <nsets>  - number of sets in the cache
    <bsize>  - block size of the cache
    <assoc>  - associativity of the cache
    <repl>   - block replacement strategy, 'l'-LRU, 'f'-FIFO, 'r'-random

    Examples:   -cache:dl1 dl1:4096:32:1:l
                -dtlb dtlb:128:4096:32:r

  Cache levels can be unified by pointing a level of the instruction cache
  hierarchy at the data cache hiearchy using the "dl1" and "dl2" cache
  configuration arguments.  Most sensible combinations are supported, e.g.,

    A unified l2 cache (il2 is pointed at dl2):
      -cache:il1 il1:128:64:1:l -cache:il2 dl2
      -cache:dl1 dl1:256:32:1:l -cache:dl2 ul2:1024:64:2:l

    Or, a fully unified cache hierarchy (il1 pointed at dl1):
      -cache:il1 dl1
      -cache:dl1 ul1:256:32:1:l -cache:dl2 ul2:1024:64:2:l



sim: ** fast forwarding insts **
warning: partially supported sigaction() call...
warning: invalid/unimplemented syscall 224, PC=0x12017ac74, RA=0x120074904, winging it
warning: invalid/unimplemented syscall 224, PC=0x12017ac74, RA=0x120074904, winging it
warning: invalid/unimplemented syscall 224, PC=0x12017ac74, RA=0x120074904, winging it
warning: invalid/unimplemented syscall 224, PC=0x12017ac74, RA=0x120074904, winging it
warning: invalid/unimplemented syscall 224, PC=0x12017ac74, RA=0x120074904, winging it
warning: invalid/unimplemented syscall 224, PC=0x12017ac74, RA=0x120074904, winging it
warning: unsupported ioctl call: ioctl(536900702, ...)
warning: unsupported ioctl call: ioctl(536900702, ...)
warning: unsupported ioctl call: ioctl(536900702, ...)
warning: unsupported ioctl call: ioctl(536900702, ...)
warning: invalid/unimplemented syscall 224, PC=0x12017ac74, RA=0x1200a5ae8, winging it
warning: unsupported ioctl call: ioctl(536900702, ...)
warning: invalid/unimplemented syscall 224, PC=0x12017ac74, RA=0x1200a5ae8, winging it
warning: unsupported ioctl call: ioctl(536900702, ...)
warning: invalid/unimplemented syscall 224, PC=0x12017ac74, RA=0x1200a5ae8, winging it
warning: unsupported ioctl call: ioctl(536900702, ...)
warning: invalid/unimplemented syscall 224, PC=0x12017ac74, RA=0x1200a5ae8, winging it
warning: unsupported ioctl call: ioctl(536900702, ...)
warning: invalid/unimplemented syscall 224, PC=0x12017ac74, RA=0x1200a5ae8, winging it
warning: unsupported ioctl call: ioctl(536900702, ...)
warning: invalid/unimplemented syscall 224, PC=0x12017ac74, RA=0x1200a5ae8, winging it
warning: unsupported ioctl call: ioctl(536900702, ...)
warning: invalid/unimplemented syscall 224, PC=0x12017ac74, RA=0x1200a5ae8, winging it
warning: unsupported ioctl call: ioctl(536900702, ...)
warning: invalid/unimplemented syscall 224, PC=0x12017ac74, RA=0x1200a5ae8, winging it
warning: unsupported ioctl call: ioctl(536900702, ...)
warning: invalid/unimplemented syscall 224, PC=0x12017ac74, RA=0x1200a5ae8, winging it
warning: unsupported ioctl call: ioctl(536900702, ...)
warning: invalid/unimplemented syscall 224, PC=0x12017ac74, RA=0x1200a5ae8, winging it
warning: unsupported ioctl call: ioctl(536900702, ...)
sim: ** starting performance simulation **
EPOCH STARTS
TH0 ROB: 4 LSQ: 2 IQ: 0 IPC: 0.2490
TH1 ROB: 4 LSQ: 3 IQ: 0, IPC: 0.3243
TH2 ROB: 4 LSQ: 1 IQ: 0, IPC: 0.1099
TH3 ROB: 104 LSQ: 85 IQ: 96, IPC: 1.6340
EPOCH ENDS
EPOCH STARTS
TH0 ROB: 4 LSQ: 2 IQ: 0 IPC: 0.1245
TH1 ROB: 4 LSQ: 3 IQ: 0, IPC: 0.1622
TH2 ROB: 4 LSQ: 1 IQ: 0, IPC: 0.0549
TH3 ROB: 105 LSQ: 86 IQ: 96, IPC: 1.9150
EPOCH ENDS
EPOCH STARTS
TH0 ROB: 4 LSQ: 2 IQ: 0 IPC: 0.0830
TH1 ROB: 4 LSQ: 3 IQ: 0, IPC: 0.1081
TH2 ROB: 4 LSQ: 1 IQ: 0, IPC: 0.0366
TH3 ROB: 105 LSQ: 87 IQ: 96, IPC: 2.0087
EPOCH ENDS
EPOCH STARTS
TH0 ROB: 4 LSQ: 2 IQ: 0 IPC: 0.0622
TH1 ROB: 4 LSQ: 3 IQ: 0, IPC: 0.0811
TH2 ROB: 4 LSQ: 1 IQ: 0, IPC: 0.0275
TH3 ROB: 106 LSQ: 87 IQ: 96, IPC: 2.0556
EPOCH ENDS
EPOCH STARTS
TH0 ROB: 4 LSQ: 2 IQ: 0 IPC: 0.0498
TH1 ROB: 4 LSQ: 3 IQ: 0, IPC: 0.0649
TH2 ROB: 4 LSQ: 1 IQ: 0, IPC: 0.0220
TH3 ROB: 104 LSQ: 85 IQ: 96, IPC: 2.0837
EPOCH ENDS
EPOCH STARTS
TH0 ROB: 4 LSQ: 2 IQ: 0 IPC: 0.0415
TH1 ROB: 4 LSQ: 3 IQ: 0, IPC: 0.0541
TH2 ROB: 4 LSQ: 1 IQ: 0, IPC: 0.0183
TH3 ROB: 104 LSQ: 85 IQ: 96, IPC: 2.1024
EPOCH ENDS
EPOCH STARTS
TH0 ROB: 4 LSQ: 2 IQ: 0 IPC: 0.0356
TH1 ROB: 4 LSQ: 3 IQ: 0, IPC: 0.0463
TH2 ROB: 4 LSQ: 1 IQ: 0, IPC: 0.0157
TH3 ROB: 104 LSQ: 85 IQ: 96, IPC: 2.1158
EPOCH ENDS
EPOCH STARTS
TH0 ROB: 4 LSQ: 2 IQ: 0 IPC: 0.0311
TH1 ROB: 4 LSQ: 3 IQ: 0, IPC: 0.0405
TH2 ROB: 4 LSQ: 1 IQ: 0, IPC: 0.0137
TH3 ROB: 105 LSQ: 87 IQ: 96, IPC: 2.1258
EPOCH ENDS
EPOCH STARTS
TH0 ROB: 4 LSQ: 2 IQ: 0 IPC: 0.0277
TH1 ROB: 4 LSQ: 3 IQ: 0, IPC: 0.0360
TH2 ROB: 4 LSQ: 1 IQ: 0, IPC: 0.0122
TH3 ROB: 105 LSQ: 86 IQ: 96, IPC: 2.1336
EPOCH ENDS
EPOCH STARTS
TH0 ROB: 4 LSQ: 2 IQ: 0 IPC: 0.0249
TH1 ROB: 4 LSQ: 3 IQ: 0, IPC: 0.0324
TH2 ROB: 4 LSQ: 1 IQ: 0, IPC: 0.0110
TH3 ROB: 104 LSQ: 85 IQ: 96, IPC: 2.1399
EPOCH ENDS
EPOCH STARTS
TH0 ROB: 4 LSQ: 2 IQ: 0 IPC: 0.0226
TH1 ROB: 4 LSQ: 3 IQ: 0, IPC: 0.0295
TH2 ROB: 4 LSQ: 1 IQ: 0, IPC: 0.0100
TH3 ROB: 104 LSQ: 85 IQ: 96, IPC: 2.1450
EPOCH ENDS
EPOCH STARTS
TH0 ROB: 4 LSQ: 2 IQ: 0 IPC: 0.0207
TH1 ROB: 4 LSQ: 3 IQ: 0, IPC: 0.0270
TH2 ROB: 4 LSQ: 1 IQ: 0, IPC: 0.0092
TH3 ROB: 104 LSQ: 87 IQ: 96, IPC: 2.1492
EPOCH ENDS
EPOCH STARTS
TH0 ROB: 4 LSQ: 2 IQ: 0 IPC: 0.0192
TH1 ROB: 4 LSQ: 3 IQ: 0, IPC: 0.0249
TH2 ROB: 4 LSQ: 1 IQ: 0, IPC: 0.0085
TH3 ROB: 105 LSQ: 87 IQ: 96, IPC: 2.1528
EPOCH ENDS
EPOCH STARTS
TH0 ROB: 4 LSQ: 2 IQ: 0 IPC: 0.0178
TH1 ROB: 4 LSQ: 3 IQ: 0, IPC: 0.0232
TH2 ROB: 4 LSQ: 1 IQ: 0, IPC: 0.0078
TH3 ROB: 105 LSQ: 85 IQ: 96, IPC: 2.1559
EPOCH ENDS
EPOCH STARTS
TH0 ROB: 4 LSQ: 2 IQ: 0 IPC: 0.0166
TH1 ROB: 4 LSQ: 3 IQ: 0, IPC: 0.0216
TH2 ROB: 4 LSQ: 1 IQ: 0, IPC: 0.0073
TH3 ROB: 104 LSQ: 85 IQ: 96, IPC: 2.1586
EPOCH ENDS
EPOCH STARTS
TH0 ROB: 4 LSQ: 2 IQ: 0 IPC: 0.0156
TH1 ROB: 4 LSQ: 3 IQ: 0, IPC: 0.0203
TH2 ROB: 4 LSQ: 1 IQ: 0, IPC: 0.0069
TH3 ROB: 104 LSQ: 85 IQ: 96, IPC: 2.1609
EPOCH ENDS
EPOCH STARTS
TH0 ROB: 4 LSQ: 2 IQ: 0 IPC: 0.0146
TH1 ROB: 4 LSQ: 3 IQ: 0, IPC: 0.0191
TH2 ROB: 4 LSQ: 1 IQ: 0, IPC: 0.0065
TH3 ROB: 104 LSQ: 86 IQ: 96, IPC: 2.1630
EPOCH ENDS
EPOCH STARTS
TH0 ROB: 4 LSQ: 2 IQ: 0 IPC: 0.0138
TH1 ROB: 4 LSQ: 3 IQ: 0, IPC: 0.0180
TH2 ROB: 4 LSQ: 1 IQ: 0, IPC: 0.0061
TH3 ROB: 107 LSQ: 88 IQ: 96, IPC: 2.1648
EPOCH ENDS
EPOCH STARTS
TH0 ROB: 4 LSQ: 2 IQ: 0 IPC: 0.0131
TH1 ROB: 4 LSQ: 3 IQ: 0, IPC: 0.0171
TH2 ROB: 4 LSQ: 1 IQ: 0, IPC: 0.0058
TH3 ROB: 105 LSQ: 86 IQ: 96, IPC: 2.1665
EPOCH ENDS
EPOCH STARTS
TH0 ROB: 4 LSQ: 2 IQ: 0 IPC: 0.0124
TH1 ROB: 4 LSQ: 3 IQ: 0, IPC: 0.0162
TH2 ROB: 4 LSQ: 1 IQ: 0, IPC: 0.0055
TH3 ROB: 105 LSQ: 85 IQ: 96, IPC: 2.1680
EPOCH ENDS
EPOCH STARTS
TH0 ROB: 4 LSQ: 2 IQ: 0 IPC: 0.0119
TH1 ROB: 4 LSQ: 3 IQ: 0, IPC: 0.0154
TH2 ROB: 4 LSQ: 1 IQ: 0, IPC: 0.0052
TH3 ROB: 104 LSQ: 85 IQ: 96, IPC: 2.1693
EPOCH ENDS
EPOCH STARTS
TH0 ROB: 4 LSQ: 2 IQ: 0 IPC: 0.0113
TH1 ROB: 4 LSQ: 3 IQ: 0, IPC: 0.0147
TH2 ROB: 4 LSQ: 1 IQ: 0, IPC: 0.0050
TH3 ROB: 105 LSQ: 87 IQ: 96, IPC: 2.1705
EPOCH ENDS
EPOCH STARTS
TH0 ROB: 4 LSQ: 2 IQ: 0 IPC: 0.0108
TH1 ROB: 4 LSQ: 3 IQ: 0, IPC: 0.0141
TH2 ROB: 4 LSQ: 1 IQ: 0, IPC: 0.0048
TH3 ROB: 105 LSQ: 86 IQ: 96, IPC: 2.1716
EPOCH ENDS
EPOCH STARTS
TH0 ROB: 4 LSQ: 2 IQ: 0 IPC: 0.0104
TH1 ROB: 4 LSQ: 3 IQ: 0, IPC: 0.0135
TH2 ROB: 4 LSQ: 1 IQ: 0, IPC: 0.0046
TH3 ROB: 104 LSQ: 85 IQ: 96, IPC: 2.1727
EPOCH ENDS
EPOCH STARTS
TH0 ROB: 4 LSQ: 2 IQ: 0 IPC: 0.0100
TH1 ROB: 4 LSQ: 3 IQ: 0, IPC: 0.0130
TH2 ROB: 4 LSQ: 1 IQ: 0, IPC: 0.0044
TH3 ROB: 105 LSQ: 86 IQ: 96, IPC: 2.1736
EPOCH ENDS
EPOCH STARTS
TH0 ROB: 4 LSQ: 2 IQ: 0 IPC: 0.0096
TH1 ROB: 4 LSQ: 3 IQ: 0, IPC: 0.0125
TH2 ROB: 4 LSQ: 1 IQ: 0, IPC: 0.0042
TH3 ROB: 105 LSQ: 87 IQ: 96, IPC: 2.1745
EPOCH ENDS
EPOCH STARTS
TH0 ROB: 4 LSQ: 2 IQ: 0 IPC: 0.0092
TH1 ROB: 4 LSQ: 3 IQ: 0, IPC: 0.0120
TH2 ROB: 4 LSQ: 1 IQ: 0, IPC: 0.0041
TH3 ROB: 105 LSQ: 87 IQ: 96, IPC: 2.1753
EPOCH ENDS
EPOCH STARTS
TH0 ROB: 4 LSQ: 2 IQ: 0 IPC: 0.0089
TH1 ROB: 4 LSQ: 3 IQ: 0, IPC: 0.0116
TH2 ROB: 4 LSQ: 1 IQ: 0, IPC: 0.0039
TH3 ROB: 106 LSQ: 87 IQ: 96, IPC: 2.1760
EPOCH ENDS
EPOCH STARTS
TH0 ROB: 4 LSQ: 2 IQ: 0 IPC: 0.0086
TH1 ROB: 4 LSQ: 3 IQ: 0, IPC: 0.0112
TH2 ROB: 4 LSQ: 1 IQ: 0, IPC: 0.0038
TH3 ROB: 104 LSQ: 85 IQ: 96, IPC: 2.1767
EPOCH ENDS
EPOCH STARTS
TH0 ROB: 4 LSQ: 2 IQ: 0 IPC: 0.0083
TH1 ROB: 4 LSQ: 3 IQ: 0, IPC: 0.0108
TH2 ROB: 4 LSQ: 1 IQ: 0, IPC: 0.0037
TH3 ROB: 104 LSQ: 85 IQ: 96, IPC: 2.1773
EPOCH ENDS
EPOCH STARTS
TH0 ROB: 4 LSQ: 2 IQ: 0 IPC: 0.0080
TH1 ROB: 4 LSQ: 3 IQ: 0, IPC: 0.0105
TH2 ROB: 4 LSQ: 1 IQ: 0, IPC: 0.0035
TH3 ROB: 105 LSQ: 87 IQ: 96, IPC: 2.1779
EPOCH ENDS
EPOCH STARTS
TH0 ROB: 4 LSQ: 2 IQ: 0 IPC: 0.0078
TH1 ROB: 4 LSQ: 3 IQ: 0, IPC: 0.0101
TH2 ROB: 4 LSQ: 1 IQ: 0, IPC: 0.0034
TH3 ROB: 106 LSQ: 87 IQ: 96, IPC: 2.1785
EPOCH ENDS
EPOCH STARTS
TH0 ROB: 4 LSQ: 2 IQ: 0 IPC: 0.0075
TH1 ROB: 4 LSQ: 3 IQ: 0, IPC: 0.0098
TH2 ROB: 4 LSQ: 1 IQ: 0, IPC: 0.0033
TH3 ROB: 106 LSQ: 87 IQ: 96, IPC: 2.1790
EPOCH ENDS
EPOCH STARTS
TH0 ROB: 4 LSQ: 2 IQ: 0 IPC: 0.0073
TH1 ROB: 4 LSQ: 3 IQ: 0, IPC: 0.0095
TH2 ROB: 4 LSQ: 1 IQ: 0, IPC: 0.0032
TH3 ROB: 106 LSQ: 87 IQ: 96, IPC: 2.1795
EPOCH ENDS
EPOCH STARTS
TH0 ROB: 4 LSQ: 2 IQ: 0 IPC: 0.0071
TH1 ROB: 4 LSQ: 3 IQ: 0, IPC: 0.0093
TH2 ROB: 4 LSQ: 1 IQ: 0, IPC: 0.0031
TH3 ROB: 104 LSQ: 86 IQ: 96, IPC: 2.1800
EPOCH ENDS
EPOCH STARTS
TH0 ROB: 4 LSQ: 2 IQ: 0 IPC: 0.0069
TH1 ROB: 4 LSQ: 3 IQ: 0, IPC: 0.0090
TH2 ROB: 4 LSQ: 1 IQ: 0, IPC: 0.0031
TH3 ROB: 104 LSQ: 87 IQ: 96, IPC: 2.1805
EPOCH ENDS
EPOCH STARTS
TH0 ROB: 4 LSQ: 2 IQ: 0 IPC: 0.0067
TH1 ROB: 4 LSQ: 3 IQ: 0, IPC: 0.0088
TH2 ROB: 4 LSQ: 1 IQ: 0, IPC: 0.0030
TH3 ROB: 105 LSQ: 86 IQ: 96, IPC: 2.1809
EPOCH ENDS
EPOCH STARTS
TH0 ROB: 4 LSQ: 2 IQ: 0 IPC: 0.0066
TH1 ROB: 4 LSQ: 3 IQ: 0, IPC: 0.0085
TH2 ROB: 4 LSQ: 1 IQ: 0, IPC: 0.0029
TH3 ROB: 105 LSQ: 86 IQ: 96, IPC: 2.1813
EPOCH ENDS
EPOCH STARTS
TH0 ROB: 4 LSQ: 2 IQ: 0 IPC: 0.0064
TH1 ROB: 4 LSQ: 3 IQ: 0, IPC: 0.0083
TH2 ROB: 4 LSQ: 1 IQ: 0, IPC: 0.0028
TH3 ROB: 106 LSQ: 87 IQ: 96, IPC: 2.1817
EPOCH ENDS
EPOCH STARTS
TH0 ROB: 4 LSQ: 2 IQ: 0 IPC: 0.0062
TH1 ROB: 4 LSQ: 3 IQ: 0, IPC: 0.0081
TH2 ROB: 4 LSQ: 1 IQ: 0, IPC: 0.0027
TH3 ROB: 105 LSQ: 87 IQ: 96, IPC: 2.1820
EPOCH ENDS
EPOCH STARTS
TH0 ROB: 4 LSQ: 2 IQ: 0 IPC: 0.0061
TH1 ROB: 4 LSQ: 3 IQ: 0, IPC: 0.0079
TH2 ROB: 4 LSQ: 1 IQ: 0, IPC: 0.0027
TH3 ROB: 105 LSQ: 86 IQ: 96, IPC: 2.1824
EPOCH ENDS
EPOCH STARTS
TH0 ROB: 4 LSQ: 2 IQ: 0 IPC: 0.0059
TH1 ROB: 4 LSQ: 3 IQ: 0, IPC: 0.0077
TH2 ROB: 4 LSQ: 1 IQ: 0, IPC: 0.0026
TH3 ROB: 105 LSQ: 86 IQ: 96, IPC: 2.1827
EPOCH ENDS
EPOCH STARTS
TH0 ROB: 4 LSQ: 2 IQ: 0 IPC: 0.0058
TH1 ROB: 4 LSQ: 3 IQ: 0, IPC: 0.0075
TH2 ROB: 4 LSQ: 1 IQ: 0, IPC: 0.0026
TH3 ROB: 105 LSQ: 86 IQ: 96, IPC: 2.1830
EPOCH ENDS
EPOCH STARTS
TH0 ROB: 4 LSQ: 2 IQ: 0 IPC: 0.0057
TH1 ROB: 4 LSQ: 3 IQ: 0, IPC: 0.0074
TH2 ROB: 4 LSQ: 1 IQ: 0, IPC: 0.0025
TH3 ROB: 105 LSQ: 86 IQ: 96, IPC: 2.1833
EPOCH ENDS
EPOCH STARTS
TH0 ROB: 4 LSQ: 2 IQ: 0 IPC: 0.0055
TH1 ROB: 4 LSQ: 3 IQ: 0, IPC: 0.0072
TH2 ROB: 4 LSQ: 1 IQ: 0, IPC: 0.0024
TH3 ROB: 105 LSQ: 87 IQ: 96, IPC: 2.1836
EPOCH ENDS
EPOCH STARTS
TH0 ROB: 4 LSQ: 2 IQ: 0 IPC: 0.0054
TH1 ROB: 4 LSQ: 3 IQ: 0, IPC: 0.0071
TH2 ROB: 4 LSQ: 1 IQ: 0, IPC: 0.0024
TH3 ROB: 105 LSQ: 86 IQ: 96, IPC: 2.1839
EPOCH ENDS
EPOCH STARTS
TH0 ROB: 4 LSQ: 2 IQ: 0 IPC: 0.0053
TH1 ROB: 4 LSQ: 3 IQ: 0, IPC: 0.0069
TH2 ROB: 4 LSQ: 1 IQ: 0, IPC: 0.0023
TH3 ROB: 105 LSQ: 86 IQ: 96, IPC: 2.1841
EPOCH ENDS
EPOCH STARTS
TH0 ROB: 4 LSQ: 2 IQ: 0 IPC: 0.0052
TH1 ROB: 4 LSQ: 3 IQ: 0, IPC: 0.0068
TH2 ROB: 4 LSQ: 1 IQ: 0, IPC: 0.0023
TH3 ROB: 105 LSQ: 86 IQ: 96, IPC: 2.1844
EPOCH ENDS
EPOCH STARTS
TH0 ROB: 4 LSQ: 2 IQ: 0 IPC: 0.0051
TH1 ROB: 4 LSQ: 3 IQ: 0, IPC: 0.0066
TH2 ROB: 4 LSQ: 1 IQ: 0, IPC: 0.0022
TH3 ROB: 105 LSQ: 87 IQ: 96, IPC: 2.1846
EPOCH ENDS
EPOCH STARTS
TH0 ROB: 4 LSQ: 2 IQ: 0 IPC: 0.0050
TH1 ROB: 4 LSQ: 3 IQ: 0, IPC: 0.0065
TH2 ROB: 4 LSQ: 1 IQ: 0, IPC: 0.0022
TH3 ROB: 105 LSQ: 88 IQ: 96, IPC: 2.1848
EPOCH ENDS
EPOCH STARTS
TH0 ROB: 4 LSQ: 2 IQ: 0 IPC: 0.0049
TH1 ROB: 4 LSQ: 3 IQ: 0, IPC: 0.0064
TH2 ROB: 4 LSQ: 1 IQ: 0, IPC: 0.0022
TH3 ROB: 104 LSQ: 85 IQ: 96, IPC: 2.1851
EPOCH ENDS
EPOCH STARTS
TH0 ROB: 4 LSQ: 2 IQ: 0 IPC: 0.0048
TH1 ROB: 4 LSQ: 3 IQ: 0, IPC: 0.0062
TH2 ROB: 4 LSQ: 1 IQ: 0, IPC: 0.0021
TH3 ROB: 104 LSQ: 85 IQ: 96, IPC: 2.1853
EPOCH ENDS
EPOCH STARTS
TH0 ROB: 4 LSQ: 2 IQ: 0 IPC: 0.0047
TH1 ROB: 4 LSQ: 3 IQ: 0, IPC: 0.0061
TH2 ROB: 4 LSQ: 1 IQ: 0, IPC: 0.0021
TH3 ROB: 105 LSQ: 86 IQ: 96, IPC: 2.1855
EPOCH ENDS
EPOCH STARTS
TH0 ROB: 4 LSQ: 2 IQ: 0 IPC: 0.0046
TH1 ROB: 4 LSQ: 3 IQ: 0, IPC: 0.0060
TH2 ROB: 4 LSQ: 1 IQ: 0, IPC: 0.0020
TH3 ROB: 105 LSQ: 87 IQ: 96, IPC: 2.1857
EPOCH ENDS
EPOCH STARTS
TH0 ROB: 4 LSQ: 2 IQ: 0 IPC: 0.0045
TH1 ROB: 4 LSQ: 3 IQ: 0, IPC: 0.0059
TH2 ROB: 4 LSQ: 1 IQ: 0, IPC: 0.0020
TH3 ROB: 106 LSQ: 87 IQ: 96, IPC: 2.1859
EPOCH ENDS
EPOCH STARTS
TH0 ROB: 4 LSQ: 2 IQ: 0 IPC: 0.0044
TH1 ROB: 4 LSQ: 3 IQ: 0, IPC: 0.0058
TH2 ROB: 4 LSQ: 1 IQ: 0, IPC: 0.0020
TH3 ROB: 104 LSQ: 85 IQ: 96, IPC: 2.1860
EPOCH ENDS
EPOCH STARTS
TH0 ROB: 4 LSQ: 2 IQ: 0 IPC: 0.0044
TH1 ROB: 4 LSQ: 3 IQ: 0, IPC: 0.0057
TH2 ROB: 4 LSQ: 1 IQ: 0, IPC: 0.0019
TH3 ROB: 104 LSQ: 85 IQ: 96, IPC: 2.1862
EPOCH ENDS
EPOCH STARTS
TH0 ROB: 4 LSQ: 2 IQ: 0 IPC: 0.0043
TH1 ROB: 4 LSQ: 3 IQ: 0, IPC: 0.0056
TH2 ROB: 4 LSQ: 1 IQ: 0, IPC: 0.0019
TH3 ROB: 104 LSQ: 85 IQ: 96, IPC: 2.1864
EPOCH ENDS
EPOCH STARTS
TH0 ROB: 4 LSQ: 2 IQ: 0 IPC: 0.0042
TH1 ROB: 4 LSQ: 3 IQ: 0, IPC: 0.0055
TH2 ROB: 4 LSQ: 1 IQ: 0, IPC: 0.0019
TH3 ROB: 105 LSQ: 87 IQ: 96, IPC: 2.1866
EPOCH ENDS
EPOCH STARTS
TH0 ROB: 4 LSQ: 2 IQ: 0 IPC: 0.0041
TH1 ROB: 4 LSQ: 3 IQ: 0, IPC: 0.0054
TH2 ROB: 4 LSQ: 1 IQ: 0, IPC: 0.0018
TH3 ROB: 105 LSQ: 86 IQ: 96, IPC: 2.1867
EPOCH ENDS
EPOCH STARTS
TH0 ROB: 4 LSQ: 2 IQ: 0 IPC: 0.0041
TH1 ROB: 4 LSQ: 3 IQ: 0, IPC: 0.0053
TH2 ROB: 4 LSQ: 1 IQ: 0, IPC: 0.0018
TH3 ROB: 104 LSQ: 85 IQ: 96, IPC: 2.1869
EPOCH ENDS
EPOCH STARTS
TH0 ROB: 4 LSQ: 2 IQ: 0 IPC: 0.0040
TH1 ROB: 4 LSQ: 3 IQ: 0, IPC: 0.0052
TH2 ROB: 4 LSQ: 1 IQ: 0, IPC: 0.0018
TH3 ROB: 104 LSQ: 85 IQ: 96, IPC: 2.1870
EPOCH ENDS
EPOCH STARTS
TH0 ROB: 4 LSQ: 2 IQ: 0 IPC: 0.0040
TH1 ROB: 4 LSQ: 3 IQ: 0, IPC: 0.0051
TH2 ROB: 4 LSQ: 1 IQ: 0, IPC: 0.0017
TH3 ROB: 104 LSQ: 87 IQ: 96, IPC: 2.1872
EPOCH ENDS
EPOCH STARTS
TH0 ROB: 4 LSQ: 2 IQ: 0 IPC: 0.0039
TH1 ROB: 4 LSQ: 3 IQ: 0, IPC: 0.0051
TH2 ROB: 4 LSQ: 1 IQ: 0, IPC: 0.0017
TH3 ROB: 105 LSQ: 87 IQ: 96, IPC: 2.1873
EPOCH ENDS
EPOCH STARTS
TH0 ROB: 4 LSQ: 2 IQ: 0 IPC: 0.0038
TH1 ROB: 4 LSQ: 3 IQ: 0, IPC: 0.0050
TH2 ROB: 4 LSQ: 1 IQ: 0, IPC: 0.0017
TH3 ROB: 105 LSQ: 85 IQ: 96, IPC: 2.1874
EPOCH ENDS
EPOCH STARTS
TH0 ROB: 4 LSQ: 2 IQ: 0 IPC: 0.0038
TH1 ROB: 4 LSQ: 3 IQ: 0, IPC: 0.0049
TH2 ROB: 4 LSQ: 1 IQ: 0, IPC: 0.0017
TH3 ROB: 104 LSQ: 85 IQ: 96, IPC: 2.1876
EPOCH ENDS
EPOCH STARTS
TH0 ROB: 4 LSQ: 2 IQ: 0 IPC: 0.0037
TH1 ROB: 4 LSQ: 3 IQ: 0, IPC: 0.0048
TH2 ROB: 4 LSQ: 1 IQ: 0, IPC: 0.0016
TH3 ROB: 104 LSQ: 85 IQ: 96, IPC: 2.1877
EPOCH ENDS
EPOCH STARTS
TH0 ROB: 4 LSQ: 2 IQ: 0 IPC: 0.0037
TH1 ROB: 4 LSQ: 3 IQ: 0, IPC: 0.0048
TH2 ROB: 4 LSQ: 1 IQ: 0, IPC: 0.0016
TH3 ROB: 104 LSQ: 86 IQ: 96, IPC: 2.1878
EPOCH ENDS
EPOCH STARTS
TH0 ROB: 4 LSQ: 2 IQ: 0 IPC: 0.0036
TH1 ROB: 4 LSQ: 3 IQ: 0, IPC: 0.0047
TH2 ROB: 4 LSQ: 1 IQ: 0, IPC: 0.0016
TH3 ROB: 107 LSQ: 88 IQ: 96, IPC: 2.1879
EPOCH ENDS
EPOCH STARTS
TH0 ROB: 4 LSQ: 2 IQ: 0 IPC: 0.0036
TH1 ROB: 4 LSQ: 3 IQ: 0, IPC: 0.0046
TH2 ROB: 4 LSQ: 1 IQ: 0, IPC: 0.0016
TH3 ROB: 105 LSQ: 86 IQ: 96, IPC: 2.1880
EPOCH ENDS
EPOCH STARTS
TH0 ROB: 4 LSQ: 2 IQ: 0 IPC: 0.0035
TH1 ROB: 4 LSQ: 3 IQ: 0, IPC: 0.0046
TH2 ROB: 4 LSQ: 1 IQ: 0, IPC: 0.0015
TH3 ROB: 105 LSQ: 85 IQ: 96, IPC: 2.1882
EPOCH ENDS
EPOCH STARTS
TH0 ROB: 4 LSQ: 2 IQ: 0 IPC: 0.0035
TH1 ROB: 4 LSQ: 3 IQ: 0, IPC: 0.0045
TH2 ROB: 4 LSQ: 1 IQ: 0, IPC: 0.0015
TH3 ROB: 104 LSQ: 85 IQ: 96, IPC: 2.1883
EPOCH ENDS
EPOCH STARTS
TH0 ROB: 4 LSQ: 2 IQ: 0 IPC: 0.0034
TH1 ROB: 4 LSQ: 3 IQ: 0, IPC: 0.0044
TH2 ROB: 4 LSQ: 1 IQ: 0, IPC: 0.0015
TH3 ROB: 105 LSQ: 87 IQ: 96, IPC: 2.1884
EPOCH ENDS
EPOCH STARTS
TH0 ROB: 4 LSQ: 2 IQ: 0 IPC: 0.0034
TH1 ROB: 4 LSQ: 3 IQ: 0, IPC: 0.0044
TH2 ROB: 4 LSQ: 1 IQ: 0, IPC: 0.0015
TH3 ROB: 105 LSQ: 86 IQ: 96, IPC: 2.1885
EPOCH ENDS
EPOCH STARTS
TH0 ROB: 4 LSQ: 2 IQ: 0 IPC: 0.0033
TH1 ROB: 4 LSQ: 3 IQ: 0, IPC: 0.0043
TH2 ROB: 4 LSQ: 1 IQ: 0, IPC: 0.0015
TH3 ROB: 104 LSQ: 85 IQ: 96, IPC: 2.1886
EPOCH ENDS
EPOCH STARTS
TH0 ROB: 4 LSQ: 2 IQ: 0 IPC: 0.0033
TH1 ROB: 4 LSQ: 3 IQ: 0, IPC: 0.0043
TH2 ROB: 4 LSQ: 1 IQ: 0, IPC: 0.0014
TH3 ROB: 105 LSQ: 86 IQ: 96, IPC: 2.1887
EPOCH ENDS
EPOCH STARTS
TH0 ROB: 4 LSQ: 2 IQ: 0 IPC: 0.0032
TH1 ROB: 4 LSQ: 3 IQ: 0, IPC: 0.0042
TH2 ROB: 4 LSQ: 1 IQ: 0, IPC: 0.0014
TH3 ROB: 105 LSQ: 87 IQ: 96, IPC: 2.1888
EPOCH ENDS
EPOCH STARTS
TH0 ROB: 4 LSQ: 2 IQ: 0 IPC: 0.0032
TH1 ROB: 4 LSQ: 3 IQ: 0, IPC: 0.0042
TH2 ROB: 4 LSQ: 1 IQ: 0, IPC: 0.0014
TH3 ROB: 105 LSQ: 87 IQ: 96, IPC: 2.1889
EPOCH ENDS
EPOCH STARTS
TH0 ROB: 4 LSQ: 2 IQ: 0 IPC: 0.0032
TH1 ROB: 4 LSQ: 3 IQ: 0, IPC: 0.0041
TH2 ROB: 4 LSQ: 1 IQ: 0, IPC: 0.0014
TH3 ROB: 106 LSQ: 87 IQ: 96, IPC: 2.1890
EPOCH ENDS
EPOCH STARTS
TH0 ROB: 4 LSQ: 2 IQ: 0 IPC: 0.0031
TH1 ROB: 4 LSQ: 3 IQ: 0, IPC: 0.0041
TH2 ROB: 4 LSQ: 1 IQ: 0, IPC: 0.0014
TH3 ROB: 104 LSQ: 85 IQ: 96, IPC: 2.1891
EPOCH ENDS
EPOCH STARTS
TH0 ROB: 4 LSQ: 2 IQ: 0 IPC: 0.0031
TH1 ROB: 4 LSQ: 3 IQ: 0, IPC: 0.0040
TH2 ROB: 4 LSQ: 1 IQ: 0, IPC: 0.0014
TH3 ROB: 104 LSQ: 85 IQ: 96, IPC: 2.1891
EPOCH ENDS
EPOCH STARTS
TH0 ROB: 4 LSQ: 2 IQ: 0 IPC: 0.0030
TH1 ROB: 4 LSQ: 3 IQ: 0, IPC: 0.0040
TH2 ROB: 4 LSQ: 1 IQ: 0, IPC: 0.0013
TH3 ROB: 105 LSQ: 87 IQ: 96, IPC: 2.1892
EPOCH ENDS
EPOCH STARTS
TH0 ROB: 4 LSQ: 2 IQ: 0 IPC: 0.0030
TH1 ROB: 4 LSQ: 3 IQ: 0, IPC: 0.0039
TH2 ROB: 4 LSQ: 1 IQ: 0, IPC: 0.0013
TH3 ROB: 106 LSQ: 87 IQ: 96, IPC: 2.1893
EPOCH ENDS
EPOCH STARTS
TH0 ROB: 4 LSQ: 2 IQ: 0 IPC: 0.0030
TH1 ROB: 4 LSQ: 3 IQ: 0, IPC: 0.0039
TH2 ROB: 4 LSQ: 1 IQ: 0, IPC: 0.0013
TH3 ROB: 106 LSQ: 87 IQ: 96, IPC: 2.1894
EPOCH ENDS
EPOCH STARTS
TH0 ROB: 4 LSQ: 2 IQ: 0 IPC: 0.0029
TH1 ROB: 4 LSQ: 3 IQ: 0, IPC: 0.0038
TH2 ROB: 4 LSQ: 1 IQ: 0, IPC: 0.0013
TH3 ROB: 106 LSQ: 87 IQ: 96, IPC: 2.1895
EPOCH ENDS
EPOCH STARTS
TH0 ROB: 4 LSQ: 2 IQ: 0 IPC: 0.0029
TH1 ROB: 4 LSQ: 3 IQ: 0, IPC: 0.0038
TH2 ROB: 4 LSQ: 1 IQ: 0, IPC: 0.0013
TH3 ROB: 104 LSQ: 86 IQ: 96, IPC: 2.1895
EPOCH ENDS
EPOCH STARTS
TH0 ROB: 4 LSQ: 2 IQ: 0 IPC: 0.0029
TH1 ROB: 4 LSQ: 3 IQ: 0, IPC: 0.0037
TH2 ROB: 4 LSQ: 1 IQ: 0, IPC: 0.0013
TH3 ROB: 104 LSQ: 87 IQ: 96, IPC: 2.1896
EPOCH ENDS
EPOCH STARTS
TH0 ROB: 4 LSQ: 2 IQ: 0 IPC: 0.0028
TH1 ROB: 4 LSQ: 3 IQ: 0, IPC: 0.0037
TH2 ROB: 4 LSQ: 1 IQ: 0, IPC: 0.0012
TH3 ROB: 105 LSQ: 86 IQ: 96, IPC: 2.1897
EPOCH ENDS
EPOCH STARTS
TH0 ROB: 4 LSQ: 2 IQ: 0 IPC: 0.0028
TH1 ROB: 4 LSQ: 3 IQ: 0, IPC: 0.0036
TH2 ROB: 4 LSQ: 1 IQ: 0, IPC: 0.0012
TH3 ROB: 105 LSQ: 86 IQ: 96, IPC: 2.1898
EPOCH ENDS
EPOCH STARTS
TH0 ROB: 4 LSQ: 2 IQ: 0 IPC: 0.0028
TH1 ROB: 4 LSQ: 3 IQ: 0, IPC: 0.0036
TH2 ROB: 4 LSQ: 1 IQ: 0, IPC: 0.0012
TH3 ROB: 106 LSQ: 87 IQ: 96, IPC: 2.1898
EPOCH ENDS
EPOCH STARTS
TH0 ROB: 4 LSQ: 2 IQ: 0 IPC: 0.0027
TH1 ROB: 4 LSQ: 3 IQ: 0, IPC: 0.0036
TH2 ROB: 4 LSQ: 1 IQ: 0, IPC: 0.0012
TH3 ROB: 105 LSQ: 87 IQ: 96, IPC: 2.1899
EPOCH ENDS
EPOCH STARTS
TH0 ROB: 4 LSQ: 2 IQ: 0 IPC: 0.0027
TH1 ROB: 4 LSQ: 3 IQ: 0, IPC: 0.0035
TH2 ROB: 4 LSQ: 1 IQ: 0, IPC: 0.0012
TH3 ROB: 105 LSQ: 86 IQ: 96, IPC: 2.1900
EPOCH ENDS
EPOCH STARTS
TH0 ROB: 4 LSQ: 2 IQ: 0 IPC: 0.0027
TH1 ROB: 4 LSQ: 3 IQ: 0, IPC: 0.0035
TH2 ROB: 4 LSQ: 1 IQ: 0, IPC: 0.0012
TH3 ROB: 105 LSQ: 86 IQ: 96, IPC: 2.1900
EPOCH ENDS
EPOCH STARTS
TH0 ROB: 4 LSQ: 2 IQ: 0 IPC: 0.0026
TH1 ROB: 4 LSQ: 3 IQ: 0, IPC: 0.0035
TH2 ROB: 4 LSQ: 1 IQ: 0, IPC: 0.0012
TH3 ROB: 105 LSQ: 86 IQ: 96, IPC: 2.1901
EPOCH ENDS
EPOCH STARTS
TH0 ROB: 4 LSQ: 2 IQ: 0 IPC: 0.0026
TH1 ROB: 4 LSQ: 3 IQ: 0, IPC: 0.0034
TH2 ROB: 4 LSQ: 1 IQ: 0, IPC: 0.0012
TH3 ROB: 105 LSQ: 86 IQ: 96, IPC: 2.1902
EPOCH ENDS
EPOCH STARTS
TH0 ROB: 4 LSQ: 2 IQ: 0 IPC: 0.0026
TH1 ROB: 4 LSQ: 3 IQ: 0, IPC: 0.0034
TH2 ROB: 4 LSQ: 1 IQ: 0, IPC: 0.0011
TH3 ROB: 105 LSQ: 87 IQ: 96, IPC: 2.1902
EPOCH ENDS
EPOCH STARTS
TH0 ROB: 4 LSQ: 2 IQ: 0 IPC: 0.0026
TH1 ROB: 4 LSQ: 3 IQ: 0, IPC: 0.0033
TH2 ROB: 4 LSQ: 1 IQ: 0, IPC: 0.0011
TH3 ROB: 105 LSQ: 86 IQ: 96, IPC: 2.1903
EPOCH ENDS
EPOCH STARTS
TH0 ROB: 4 LSQ: 2 IQ: 0 IPC: 0.0025
TH1 ROB: 4 LSQ: 3 IQ: 0, IPC: 0.0033
TH2 ROB: 4 LSQ: 1 IQ: 0, IPC: 0.0011
TH3 ROB: 105 LSQ: 86 IQ: 96, IPC: 2.1903
EPOCH ENDS
EPOCH STARTS
TH0 ROB: 4 LSQ: 2 IQ: 0 IPC: 0.0025
TH1 ROB: 4 LSQ: 3 IQ: 0, IPC: 0.0033
TH2 ROB: 4 LSQ: 1 IQ: 0, IPC: 0.0011
TH3 ROB: 105 LSQ: 86 IQ: 96, IPC: 2.1904
EPOCH ENDS
EPOCH STARTS
TH0 ROB: 4 LSQ: 2 IQ: 0 IPC: 0.0025
TH1 ROB: 4 LSQ: 3 IQ: 0, IPC: 0.0032
TH2 ROB: 4 LSQ: 1 IQ: 0, IPC: 0.0011
TH3 ROB: 105 LSQ: 87 IQ: 96, IPC: 2.1905
EPOCH ENDS
EPOCH STARTS
TH0 ROB: 4 LSQ: 2 IQ: 0 IPC: 0.0025
TH1 ROB: 4 LSQ: 3 IQ: 0, IPC: 0.0032
TH2 ROB: 4 LSQ: 1 IQ: 0, IPC: 0.0011
TH3 ROB: 105 LSQ: 88 IQ: 96, IPC: 2.1905
EPOCH ENDS
EPOCH STARTS
TH0 ROB: 4 LSQ: 2 IQ: 0 IPC: 0.0024
TH1 ROB: 4 LSQ: 3 IQ: 0, IPC: 0.0032
TH2 ROB: 4 LSQ: 1 IQ: 0, IPC: 0.0011
TH3 ROB: 104 LSQ: 85 IQ: 96, IPC: 2.1906
EPOCH ENDS
EPOCH STARTS
TH0 ROB: 4 LSQ: 2 IQ: 0 IPC: 0.0024
TH1 ROB: 4 LSQ: 3 IQ: 0, IPC: 0.0031
TH2 ROB: 4 LSQ: 1 IQ: 0, IPC: 0.0011
TH3 ROB: 104 LSQ: 85 IQ: 96, IPC: 2.1906
EPOCH ENDS
EPOCH STARTS
TH0 ROB: 4 LSQ: 2 IQ: 0 IPC: 0.0024
TH1 ROB: 4 LSQ: 3 IQ: 0, IPC: 0.0031
TH2 ROB: 4 LSQ: 1 IQ: 0, IPC: 0.0011
TH3 ROB: 105 LSQ: 86 IQ: 96, IPC: 2.1907
EPOCH ENDS
EPOCH STARTS
TH0 ROB: 4 LSQ: 2 IQ: 0 IPC: 0.0024
TH1 ROB: 4 LSQ: 3 IQ: 0, IPC: 0.0031
TH2 ROB: 4 LSQ: 1 IQ: 0, IPC: 0.0010
TH3 ROB: 105 LSQ: 87 IQ: 96, IPC: 2.1907
EPOCH ENDS
EPOCH STARTS
TH0 ROB: 4 LSQ: 2 IQ: 0 IPC: 0.0023
TH1 ROB: 4 LSQ: 3 IQ: 0, IPC: 0.0031
TH2 ROB: 4 LSQ: 1 IQ: 0, IPC: 0.0010
TH3 ROB: 106 LSQ: 87 IQ: 96, IPC: 2.1908
EPOCH ENDS
EPOCH STARTS
TH0 ROB: 4 LSQ: 2 IQ: 0 IPC: 0.0023
TH1 ROB: 4 LSQ: 3 IQ: 0, IPC: 0.0030
TH2 ROB: 4 LSQ: 1 IQ: 0, IPC: 0.0010
TH3 ROB: 104 LSQ: 85 IQ: 96, IPC: 2.1908
EPOCH ENDS
EPOCH STARTS
TH0 ROB: 4 LSQ: 2 IQ: 0 IPC: 0.0023
TH1 ROB: 4 LSQ: 3 IQ: 0, IPC: 0.0030
TH2 ROB: 4 LSQ: 1 IQ: 0, IPC: 0.0010
TH3 ROB: 104 LSQ: 85 IQ: 96, IPC: 2.1909
EPOCH ENDS
EPOCH STARTS
TH0 ROB: 4 LSQ: 2 IQ: 0 IPC: 0.0023
TH1 ROB: 4 LSQ: 3 IQ: 0, IPC: 0.0030
TH2 ROB: 4 LSQ: 1 IQ: 0, IPC: 0.0010
TH3 ROB: 104 LSQ: 85 IQ: 96, IPC: 2.1909
EPOCH ENDS
EPOCH STARTS
TH0 ROB: 4 LSQ: 2 IQ: 0 IPC: 0.0023
TH1 ROB: 4 LSQ: 3 IQ: 0, IPC: 0.0029
TH2 ROB: 4 LSQ: 1 IQ: 0, IPC: 0.0010
TH3 ROB: 105 LSQ: 87 IQ: 96, IPC: 2.1910
EPOCH ENDS
EPOCH STARTS
TH0 ROB: 4 LSQ: 2 IQ: 0 IPC: 0.0022
TH1 ROB: 4 LSQ: 3 IQ: 0, IPC: 0.0029
TH2 ROB: 4 LSQ: 1 IQ: 0, IPC: 0.0010
TH3 ROB: 105 LSQ: 86 IQ: 96, IPC: 2.1910
EPOCH ENDS
EPOCH STARTS
TH0 ROB: 4 LSQ: 2 IQ: 0 IPC: 0.0022
TH1 ROB: 4 LSQ: 3 IQ: 0, IPC: 0.0029
TH2 ROB: 4 LSQ: 1 IQ: 0, IPC: 0.0010
TH3 ROB: 104 LSQ: 85 IQ: 96, IPC: 2.1911
EPOCH ENDS
EPOCH STARTS
TH0 ROB: 4 LSQ: 2 IQ: 0 IPC: 0.0022
TH1 ROB: 4 LSQ: 3 IQ: 0, IPC: 0.0029
TH2 ROB: 4 LSQ: 1 IQ: 0, IPC: 0.0010
TH3 ROB: 104 LSQ: 85 IQ: 96, IPC: 2.1911
EPOCH ENDS
EPOCH STARTS
TH0 ROB: 4 LSQ: 2 IQ: 0 IPC: 0.0022
TH1 ROB: 4 LSQ: 3 IQ: 0, IPC: 0.0028
TH2 ROB: 4 LSQ: 1 IQ: 0, IPC: 0.0010
TH3 ROB: 104 LSQ: 87 IQ: 96, IPC: 2.1911
EPOCH ENDS
EPOCH STARTS
TH0 ROB: 4 LSQ: 2 IQ: 0 IPC: 0.0022
TH1 ROB: 4 LSQ: 3 IQ: 0, IPC: 0.0028
TH2 ROB: 4 LSQ: 1 IQ: 0, IPC: 0.0010
TH3 ROB: 105 LSQ: 87 IQ: 96, IPC: 2.1912
EPOCH ENDS
EPOCH STARTS
TH0 ROB: 4 LSQ: 2 IQ: 0 IPC: 0.0021
TH1 ROB: 4 LSQ: 3 IQ: 0, IPC: 0.0028
TH2 ROB: 4 LSQ: 1 IQ: 0, IPC: 0.0009
TH3 ROB: 105 LSQ: 85 IQ: 96, IPC: 2.1912
EPOCH ENDS
EPOCH STARTS
TH0 ROB: 4 LSQ: 2 IQ: 0 IPC: 0.0021
TH1 ROB: 4 LSQ: 3 IQ: 0, IPC: 0.0028
TH2 ROB: 4 LSQ: 1 IQ: 0, IPC: 0.0009
TH3 ROB: 104 LSQ: 85 IQ: 96, IPC: 2.1913
EPOCH ENDS
EPOCH STARTS
TH0 ROB: 4 LSQ: 2 IQ: 0 IPC: 0.0021
TH1 ROB: 4 LSQ: 3 IQ: 0, IPC: 0.0027
TH2 ROB: 4 LSQ: 1 IQ: 0, IPC: 0.0009
TH3 ROB: 104 LSQ: 85 IQ: 96, IPC: 2.1913
EPOCH ENDS
EPOCH STARTS
TH0 ROB: 4 LSQ: 2 IQ: 0 IPC: 0.0021
TH1 ROB: 4 LSQ: 3 IQ: 0, IPC: 0.0027
TH2 ROB: 4 LSQ: 1 IQ: 0, IPC: 0.0009
TH3 ROB: 104 LSQ: 86 IQ: 96, IPC: 2.1914
EPOCH ENDS
EPOCH STARTS
TH0 ROB: 4 LSQ: 2 IQ: 0 IPC: 0.0021
TH1 ROB: 4 LSQ: 3 IQ: 0, IPC: 0.0027
TH2 ROB: 4 LSQ: 1 IQ: 0, IPC: 0.0009
TH3 ROB: 107 LSQ: 88 IQ: 96, IPC: 2.1914
EPOCH ENDS
EPOCH STARTS
TH0 ROB: 4 LSQ: 2 IQ: 0 IPC: 0.0021
TH1 ROB: 4 LSQ: 3 IQ: 0, IPC: 0.0027
TH2 ROB: 4 LSQ: 1 IQ: 0, IPC: 0.0009
TH3 ROB: 105 LSQ: 86 IQ: 96, IPC: 2.1914
EPOCH ENDS
EPOCH STARTS
TH0 ROB: 4 LSQ: 2 IQ: 0 IPC: 0.0020
TH1 ROB: 4 LSQ: 3 IQ: 0, IPC: 0.0027
TH2 ROB: 4 LSQ: 1 IQ: 0, IPC: 0.0009
TH3 ROB: 105 LSQ: 85 IQ: 96, IPC: 2.1915
EPOCH ENDS
EPOCH STARTS
TH0 ROB: 4 LSQ: 2 IQ: 0 IPC: 0.0020
TH1 ROB: 4 LSQ: 3 IQ: 0, IPC: 0.0026
TH2 ROB: 4 LSQ: 1 IQ: 0, IPC: 0.0009
TH3 ROB: 104 LSQ: 85 IQ: 96, IPC: 2.1915
EPOCH ENDS
EPOCH STARTS
TH0 ROB: 4 LSQ: 2 IQ: 0 IPC: 0.0020
TH1 ROB: 4 LSQ: 3 IQ: 0, IPC: 0.0026
TH2 ROB: 4 LSQ: 1 IQ: 0, IPC: 0.0009
TH3 ROB: 105 LSQ: 87 IQ: 96, IPC: 2.1915
EPOCH ENDS
EPOCH STARTS
TH0 ROB: 4 LSQ: 2 IQ: 0 IPC: 0.0020
TH1 ROB: 4 LSQ: 3 IQ: 0, IPC: 0.0026
TH2 ROB: 4 LSQ: 1 IQ: 0, IPC: 0.0009
TH3 ROB: 105 LSQ: 86 IQ: 96, IPC: 2.1916
EPOCH ENDS
EPOCH STARTS
TH0 ROB: 4 LSQ: 2 IQ: 0 IPC: 0.0020
TH1 ROB: 4 LSQ: 3 IQ: 0, IPC: 0.0026
TH2 ROB: 4 LSQ: 1 IQ: 0, IPC: 0.0009
TH3 ROB: 104 LSQ: 85 IQ: 96, IPC: 2.1916
EPOCH ENDS
EPOCH STARTS
TH0 ROB: 4 LSQ: 2 IQ: 0 IPC: 0.0020
TH1 ROB: 4 LSQ: 3 IQ: 0, IPC: 0.0026
TH2 ROB: 4 LSQ: 1 IQ: 0, IPC: 0.0009
TH3 ROB: 105 LSQ: 86 IQ: 96, IPC: 2.1917
EPOCH ENDS
EPOCH STARTS
TH0 ROB: 4 LSQ: 2 IQ: 0 IPC: 0.0019
TH1 ROB: 4 LSQ: 3 IQ: 0, IPC: 0.0025
TH2 ROB: 4 LSQ: 1 IQ: 0, IPC: 0.0009
TH3 ROB: 105 LSQ: 87 IQ: 96, IPC: 2.1917
EPOCH ENDS
EPOCH STARTS
TH0 ROB: 4 LSQ: 2 IQ: 0 IPC: 0.0019
TH1 ROB: 4 LSQ: 3 IQ: 0, IPC: 0.0025
TH2 ROB: 4 LSQ: 1 IQ: 0, IPC: 0.0009
TH3 ROB: 105 LSQ: 87 IQ: 96, IPC: 2.1917
EPOCH ENDS
EPOCH STARTS
TH0 ROB: 4 LSQ: 2 IQ: 0 IPC: 0.0019
TH1 ROB: 4 LSQ: 3 IQ: 0, IPC: 0.0025
TH2 ROB: 4 LSQ: 1 IQ: 0, IPC: 0.0008
TH3 ROB: 106 LSQ: 87 IQ: 96, IPC: 2.1918
EPOCH ENDS
EPOCH STARTS
TH0 ROB: 4 LSQ: 2 IQ: 0 IPC: 0.0019
TH1 ROB: 4 LSQ: 3 IQ: 0, IPC: 0.0025
TH2 ROB: 4 LSQ: 1 IQ: 0, IPC: 0.0008
TH3 ROB: 104 LSQ: 85 IQ: 96, IPC: 2.1918
EPOCH ENDS
EPOCH STARTS
TH0 ROB: 4 LSQ: 2 IQ: 0 IPC: 0.0019
TH1 ROB: 4 LSQ: 3 IQ: 0, IPC: 0.0025
TH2 ROB: 4 LSQ: 1 IQ: 0, IPC: 0.0008
TH3 ROB: 104 LSQ: 85 IQ: 96, IPC: 2.1918
EPOCH ENDS
EPOCH STARTS
TH0 ROB: 4 LSQ: 2 IQ: 0 IPC: 0.0019
TH1 ROB: 4 LSQ: 3 IQ: 0, IPC: 0.0024
TH2 ROB: 4 LSQ: 1 IQ: 0, IPC: 0.0008
TH3 ROB: 105 LSQ: 87 IQ: 96, IPC: 2.1919
EPOCH ENDS
EPOCH STARTS
TH0 ROB: 4 LSQ: 2 IQ: 0 IPC: 0.0019
TH1 ROB: 4 LSQ: 3 IQ: 0, IPC: 0.0024
TH2 ROB: 4 LSQ: 1 IQ: 0, IPC: 0.0008
TH3 ROB: 106 LSQ: 87 IQ: 96, IPC: 2.1919
EPOCH ENDS
EPOCH STARTS
TH0 ROB: 4 LSQ: 2 IQ: 0 IPC: 0.0018
TH1 ROB: 4 LSQ: 3 IQ: 0, IPC: 0.0024
TH2 ROB: 4 LSQ: 1 IQ: 0, IPC: 0.0008
TH3 ROB: 106 LSQ: 87 IQ: 96, IPC: 2.1919
EPOCH ENDS
EPOCH STARTS
TH0 ROB: 4 LSQ: 2 IQ: 0 IPC: 0.0018
TH1 ROB: 4 LSQ: 3 IQ: 0, IPC: 0.0024
TH2 ROB: 4 LSQ: 1 IQ: 0, IPC: 0.0008
TH3 ROB: 106 LSQ: 87 IQ: 96, IPC: 2.1919
EPOCH ENDS
EPOCH STARTS
TH0 ROB: 4 LSQ: 2 IQ: 0 IPC: 0.0018
TH1 ROB: 4 LSQ: 3 IQ: 0, IPC: 0.0024
TH2 ROB: 4 LSQ: 1 IQ: 0, IPC: 0.0008
TH3 ROB: 104 LSQ: 86 IQ: 96, IPC: 2.1920
EPOCH ENDS
EPOCH STARTS
TH0 ROB: 4 LSQ: 2 IQ: 0 IPC: 0.0018
TH1 ROB: 4 LSQ: 3 IQ: 0, IPC: 0.0024
TH2 ROB: 4 LSQ: 1 IQ: 0, IPC: 0.0008
TH3 ROB: 104 LSQ: 87 IQ: 96, IPC: 2.1920
EPOCH ENDS
EPOCH STARTS
TH0 ROB: 4 LSQ: 2 IQ: 0 IPC: 0.0018
TH1 ROB: 4 LSQ: 3 IQ: 0, IPC: 0.0023
TH2 ROB: 4 LSQ: 1 IQ: 0, IPC: 0.0008
TH3 ROB: 105 LSQ: 86 IQ: 96, IPC: 2.1920
EPOCH ENDS
EPOCH STARTS
TH0 ROB: 4 LSQ: 2 IQ: 0 IPC: 0.0018
TH1 ROB: 4 LSQ: 3 IQ: 0, IPC: 0.0023
TH2 ROB: 4 LSQ: 1 IQ: 0, IPC: 0.0008
TH3 ROB: 105 LSQ: 86 IQ: 96, IPC: 2.1921
EPOCH ENDS
EPOCH STARTS
TH0 ROB: 4 LSQ: 2 IQ: 0 IPC: 0.0018
TH1 ROB: 4 LSQ: 3 IQ: 0, IPC: 0.0023
TH2 ROB: 4 LSQ: 1 IQ: 0, IPC: 0.0008
TH3 ROB: 106 LSQ: 87 IQ: 96, IPC: 2.1921
EPOCH ENDS
EPOCH STARTS
TH0 ROB: 4 LSQ: 2 IQ: 0 IPC: 0.0018
TH1 ROB: 4 LSQ: 3 IQ: 0, IPC: 0.0023
TH2 ROB: 4 LSQ: 1 IQ: 0, IPC: 0.0008
TH3 ROB: 105 LSQ: 87 IQ: 96, IPC: 2.1921
EPOCH ENDS
EPOCH STARTS
TH0 ROB: 4 LSQ: 2 IQ: 0 IPC: 0.0017
TH1 ROB: 4 LSQ: 3 IQ: 0, IPC: 0.0023
TH2 ROB: 4 LSQ: 1 IQ: 0, IPC: 0.0008
TH3 ROB: 105 LSQ: 86 IQ: 96, IPC: 2.1921
EPOCH ENDS
EPOCH STARTS
TH0 ROB: 4 LSQ: 2 IQ: 0 IPC: 0.0017
TH1 ROB: 4 LSQ: 3 IQ: 0, IPC: 0.0023
TH2 ROB: 4 LSQ: 1 IQ: 0, IPC: 0.0008
TH3 ROB: 105 LSQ: 86 IQ: 96, IPC: 2.1922
EPOCH ENDS
EPOCH STARTS
TH0 ROB: 4 LSQ: 2 IQ: 0 IPC: 0.0017
TH1 ROB: 4 LSQ: 3 IQ: 0, IPC: 0.0022
TH2 ROB: 4 LSQ: 1 IQ: 0, IPC: 0.0008
TH3 ROB: 105 LSQ: 86 IQ: 96, IPC: 2.1922
EPOCH ENDS
EPOCH STARTS
TH0 ROB: 4 LSQ: 2 IQ: 0 IPC: 0.0017
TH1 ROB: 4 LSQ: 3 IQ: 0, IPC: 0.0022
TH2 ROB: 4 LSQ: 1 IQ: 0, IPC: 0.0008
TH3 ROB: 105 LSQ: 86 IQ: 96, IPC: 2.1922
EPOCH ENDS
EPOCH STARTS
TH0 ROB: 4 LSQ: 2 IQ: 0 IPC: 0.0017
TH1 ROB: 4 LSQ: 3 IQ: 0, IPC: 0.0022
TH2 ROB: 4 LSQ: 1 IQ: 0, IPC: 0.0007
TH3 ROB: 105 LSQ: 87 IQ: 96, IPC: 2.1923
EPOCH ENDS
EPOCH STARTS
TH0 ROB: 4 LSQ: 2 IQ: 0 IPC: 0.0017
TH1 ROB: 4 LSQ: 3 IQ: 0, IPC: 0.0022
TH2 ROB: 4 LSQ: 1 IQ: 0, IPC: 0.0007
TH3 ROB: 105 LSQ: 86 IQ: 96, IPC: 2.1923
EPOCH ENDS
EPOCH STARTS
TH0 ROB: 4 LSQ: 2 IQ: 0 IPC: 0.0017
TH1 ROB: 4 LSQ: 3 IQ: 0, IPC: 0.0022
TH2 ROB: 4 LSQ: 1 IQ: 0, IPC: 0.0007
TH3 ROB: 105 LSQ: 86 IQ: 96, IPC: 2.1923
EPOCH ENDS
EPOCH STARTS
TH0 ROB: 4 LSQ: 2 IQ: 0 IPC: 0.0017
TH1 ROB: 4 LSQ: 3 IQ: 0, IPC: 0.0022
TH2 ROB: 4 LSQ: 1 IQ: 0, IPC: 0.0007
TH3 ROB: 105 LSQ: 86 IQ: 96, IPC: 2.1923
EPOCH ENDS
EPOCH STARTS
TH0 ROB: 4 LSQ: 2 IQ: 0 IPC: 0.0016
TH1 ROB: 4 LSQ: 3 IQ: 0, IPC: 0.0021
TH2 ROB: 4 LSQ: 1 IQ: 0, IPC: 0.0007
TH3 ROB: 105 LSQ: 87 IQ: 96, IPC: 2.1924
EPOCH ENDS
EPOCH STARTS
TH0 ROB: 4 LSQ: 2 IQ: 0 IPC: 0.0016
TH1 ROB: 4 LSQ: 3 IQ: 0, IPC: 0.0021
TH2 ROB: 4 LSQ: 1 IQ: 0, IPC: 0.0007
TH3 ROB: 105 LSQ: 88 IQ: 96, IPC: 2.1924
EPOCH ENDS
EPOCH STARTS
TH0 ROB: 4 LSQ: 2 IQ: 0 IPC: 0.0016
TH1 ROB: 4 LSQ: 3 IQ: 0, IPC: 0.0021
TH2 ROB: 4 LSQ: 1 IQ: 0, IPC: 0.0007
TH3 ROB: 104 LSQ: 85 IQ: 96, IPC: 2.1924
EPOCH ENDS
EPOCH STARTS
TH0 ROB: 4 LSQ: 2 IQ: 0 IPC: 0.0016
TH1 ROB: 4 LSQ: 3 IQ: 0, IPC: 0.0021
TH2 ROB: 4 LSQ: 1 IQ: 0, IPC: 0.0007
TH3 ROB: 104 LSQ: 85 IQ: 96, IPC: 2.1924
EPOCH ENDS
EPOCH STARTS
TH0 ROB: 4 LSQ: 2 IQ: 0 IPC: 0.0016
TH1 ROB: 4 LSQ: 3 IQ: 0, IPC: 0.0021
TH2 ROB: 4 LSQ: 1 IQ: 0, IPC: 0.0007
TH3 ROB: 105 LSQ: 86 IQ: 96, IPC: 2.1925
EPOCH ENDS
EPOCH STARTS
TH0 ROB: 4 LSQ: 2 IQ: 0 IPC: 0.0016
TH1 ROB: 4 LSQ: 3 IQ: 0, IPC: 0.0021
TH2 ROB: 4 LSQ: 1 IQ: 0, IPC: 0.0007
TH3 ROB: 105 LSQ: 87 IQ: 96, IPC: 2.1925
EPOCH ENDS
EPOCH STARTS
TH0 ROB: 4 LSQ: 2 IQ: 0 IPC: 0.0016
TH1 ROB: 4 LSQ: 3 IQ: 0, IPC: 0.0021
TH2 ROB: 4 LSQ: 1 IQ: 0, IPC: 0.0007
TH3 ROB: 106 LSQ: 87 IQ: 96, IPC: 2.1925
EPOCH ENDS
EPOCH STARTS
TH0 ROB: 4 LSQ: 2 IQ: 0 IPC: 0.0016
TH1 ROB: 4 LSQ: 3 IQ: 0, IPC: 0.0021
TH2 ROB: 4 LSQ: 1 IQ: 0, IPC: 0.0007
TH3 ROB: 104 LSQ: 85 IQ: 96, IPC: 2.1925
EPOCH ENDS
EPOCH STARTS
TH0 ROB: 4 LSQ: 2 IQ: 0 IPC: 0.0016
TH1 ROB: 4 LSQ: 3 IQ: 0, IPC: 0.0020
TH2 ROB: 4 LSQ: 1 IQ: 0, IPC: 0.0007
TH3 ROB: 104 LSQ: 85 IQ: 96, IPC: 2.1925
EPOCH ENDS
EPOCH STARTS
TH0 ROB: 4 LSQ: 2 IQ: 0 IPC: 0.0016
TH1 ROB: 4 LSQ: 3 IQ: 0, IPC: 0.0020
TH2 ROB: 4 LSQ: 1 IQ: 0, IPC: 0.0007
TH3 ROB: 104 LSQ: 85 IQ: 96, IPC: 2.1926
EPOCH ENDS
EPOCH STARTS
TH0 ROB: 4 LSQ: 2 IQ: 0 IPC: 0.0015
TH1 ROB: 4 LSQ: 3 IQ: 0, IPC: 0.0020
TH2 ROB: 4 LSQ: 1 IQ: 0, IPC: 0.0007
TH3 ROB: 105 LSQ: 87 IQ: 96, IPC: 2.1926
EPOCH ENDS
EPOCH STARTS
TH0 ROB: 4 LSQ: 2 IQ: 0 IPC: 0.0015
TH1 ROB: 4 LSQ: 3 IQ: 0, IPC: 0.0020
TH2 ROB: 4 LSQ: 1 IQ: 0, IPC: 0.0007
TH3 ROB: 105 LSQ: 86 IQ: 96, IPC: 2.1926
EPOCH ENDS
EPOCH STARTS
TH0 ROB: 4 LSQ: 2 IQ: 0 IPC: 0.0015
TH1 ROB: 4 LSQ: 3 IQ: 0, IPC: 0.0020
TH2 ROB: 4 LSQ: 1 IQ: 0, IPC: 0.0007
TH3 ROB: 104 LSQ: 85 IQ: 96, IPC: 2.1926
EPOCH ENDS
EPOCH STARTS
TH0 ROB: 4 LSQ: 2 IQ: 0 IPC: 0.0015
TH1 ROB: 4 LSQ: 3 IQ: 0, IPC: 0.0020
TH2 ROB: 4 LSQ: 1 IQ: 0, IPC: 0.0007
TH3 ROB: 104 LSQ: 85 IQ: 96, IPC: 2.1927
EPOCH ENDS
EPOCH STARTS
TH0 ROB: 4 LSQ: 2 IQ: 0 IPC: 0.0015
TH1 ROB: 4 LSQ: 3 IQ: 0, IPC: 0.0020
TH2 ROB: 4 LSQ: 1 IQ: 0, IPC: 0.0007
TH3 ROB: 104 LSQ: 87 IQ: 96, IPC: 2.1927
EPOCH ENDS
EPOCH STARTS
TH0 ROB: 4 LSQ: 2 IQ: 0 IPC: 0.0015
TH1 ROB: 4 LSQ: 3 IQ: 0, IPC: 0.0020
TH2 ROB: 4 LSQ: 1 IQ: 0, IPC: 0.0007
TH3 ROB: 105 LSQ: 87 IQ: 96, IPC: 2.1927
EPOCH ENDS
EPOCH STARTS
TH0 ROB: 4 LSQ: 2 IQ: 0 IPC: 0.0015
TH1 ROB: 4 LSQ: 3 IQ: 0, IPC: 0.0019
TH2 ROB: 4 LSQ: 1 IQ: 0, IPC: 0.0007
TH3 ROB: 105 LSQ: 85 IQ: 96, IPC: 2.1927
EPOCH ENDS
EPOCH STARTS
TH0 ROB: 4 LSQ: 2 IQ: 0 IPC: 0.0015
TH1 ROB: 4 LSQ: 3 IQ: 0, IPC: 0.0019
TH2 ROB: 4 LSQ: 1 IQ: 0, IPC: 0.0007
TH3 ROB: 104 LSQ: 85 IQ: 96, IPC: 2.1927
EPOCH ENDS
EPOCH STARTS
TH0 ROB: 4 LSQ: 2 IQ: 0 IPC: 0.0015
TH1 ROB: 4 LSQ: 3 IQ: 0, IPC: 0.0019
TH2 ROB: 4 LSQ: 1 IQ: 0, IPC: 0.0007
TH3 ROB: 104 LSQ: 85 IQ: 96, IPC: 2.1928
EPOCH ENDS
EPOCH STARTS
TH0 ROB: 4 LSQ: 2 IQ: 0 IPC: 0.0015
TH1 ROB: 4 LSQ: 3 IQ: 0, IPC: 0.0019
TH2 ROB: 4 LSQ: 1 IQ: 0, IPC: 0.0006
TH3 ROB: 104 LSQ: 86 IQ: 96, IPC: 2.1928
EPOCH ENDS
EPOCH STARTS
TH0 ROB: 4 LSQ: 2 IQ: 0 IPC: 0.0015
TH1 ROB: 4 LSQ: 3 IQ: 0, IPC: 0.0019
TH2 ROB: 4 LSQ: 1 IQ: 0, IPC: 0.0006
TH3 ROB: 107 LSQ: 88 IQ: 96, IPC: 2.1928
EPOCH ENDS
EPOCH STARTS
TH0 ROB: 4 LSQ: 2 IQ: 0 IPC: 0.0014
TH1 ROB: 4 LSQ: 3 IQ: 0, IPC: 0.0019
TH2 ROB: 4 LSQ: 1 IQ: 0, IPC: 0.0006
TH3 ROB: 105 LSQ: 86 IQ: 96, IPC: 2.1928
EPOCH ENDS
EPOCH STARTS
TH0 ROB: 4 LSQ: 2 IQ: 0 IPC: 0.0014
TH1 ROB: 4 LSQ: 3 IQ: 0, IPC: 0.0019
TH2 ROB: 4 LSQ: 1 IQ: 0, IPC: 0.0006
TH3 ROB: 105 LSQ: 85 IQ: 96, IPC: 2.1928
EPOCH ENDS
EPOCH STARTS
TH0 ROB: 4 LSQ: 2 IQ: 0 IPC: 0.0014
TH1 ROB: 4 LSQ: 3 IQ: 0, IPC: 0.0019
TH2 ROB: 4 LSQ: 1 IQ: 0, IPC: 0.0006
TH3 ROB: 104 LSQ: 85 IQ: 96, IPC: 2.1928
EPOCH ENDS
EPOCH STARTS
TH0 ROB: 4 LSQ: 2 IQ: 0 IPC: 0.0014
TH1 ROB: 4 LSQ: 3 IQ: 0, IPC: 0.0019
TH2 ROB: 4 LSQ: 1 IQ: 0, IPC: 0.0006
TH3 ROB: 105 LSQ: 87 IQ: 96, IPC: 2.1929
EPOCH ENDS
EPOCH STARTS
TH0 ROB: 4 LSQ: 2 IQ: 0 IPC: 0.0014
TH1 ROB: 4 LSQ: 3 IQ: 0, IPC: 0.0018
TH2 ROB: 4 LSQ: 1 IQ: 0, IPC: 0.0006
TH3 ROB: 105 LSQ: 86 IQ: 96, IPC: 2.1929
EPOCH ENDS
EPOCH STARTS
TH0 ROB: 4 LSQ: 2 IQ: 0 IPC: 0.0014
TH1 ROB: 4 LSQ: 3 IQ: 0, IPC: 0.0018
TH2 ROB: 4 LSQ: 1 IQ: 0, IPC: 0.0006
TH3 ROB: 104 LSQ: 85 IQ: 96, IPC: 2.1929
EPOCH ENDS
EPOCH STARTS
TH0 ROB: 4 LSQ: 2 IQ: 0 IPC: 0.0014
TH1 ROB: 4 LSQ: 3 IQ: 0, IPC: 0.0018
TH2 ROB: 4 LSQ: 1 IQ: 0, IPC: 0.0006
TH3 ROB: 105 LSQ: 86 IQ: 96, IPC: 2.1929
EPOCH ENDS
EPOCH STARTS
TH0 ROB: 4 LSQ: 2 IQ: 0 IPC: 0.0014
TH1 ROB: 4 LSQ: 3 IQ: 0, IPC: 0.0018
TH2 ROB: 4 LSQ: 1 IQ: 0, IPC: 0.0006
TH3 ROB: 105 LSQ: 87 IQ: 96, IPC: 2.1929
EPOCH ENDS
EPOCH STARTS
TH0 ROB: 4 LSQ: 2 IQ: 0 IPC: 0.0014
TH1 ROB: 4 LSQ: 3 IQ: 0, IPC: 0.0018
TH2 ROB: 4 LSQ: 1 IQ: 0, IPC: 0.0006
TH3 ROB: 105 LSQ: 87 IQ: 96, IPC: 2.1930
EPOCH ENDS
EPOCH STARTS
TH0 ROB: 4 LSQ: 2 IQ: 0 IPC: 0.0014
TH1 ROB: 4 LSQ: 3 IQ: 0, IPC: 0.0018
TH2 ROB: 4 LSQ: 1 IQ: 0, IPC: 0.0006
TH3 ROB: 106 LSQ: 87 IQ: 96, IPC: 2.1930
EPOCH ENDS
EPOCH STARTS
TH0 ROB: 4 LSQ: 2 IQ: 0 IPC: 0.0014
TH1 ROB: 4 LSQ: 3 IQ: 0, IPC: 0.0018
TH2 ROB: 4 LSQ: 1 IQ: 0, IPC: 0.0006
TH3 ROB: 104 LSQ: 85 IQ: 96, IPC: 2.1930
EPOCH ENDS
EPOCH STARTS
TH0 ROB: 4 LSQ: 2 IQ: 0 IPC: 0.0014
TH1 ROB: 4 LSQ: 3 IQ: 0, IPC: 0.0018
TH2 ROB: 4 LSQ: 1 IQ: 0, IPC: 0.0006
TH3 ROB: 104 LSQ: 85 IQ: 96, IPC: 2.1930
EPOCH ENDS
EPOCH STARTS
TH0 ROB: 4 LSQ: 2 IQ: 0 IPC: 0.0014
TH1 ROB: 4 LSQ: 3 IQ: 0, IPC: 0.0018
TH2 ROB: 4 LSQ: 1 IQ: 0, IPC: 0.0006
TH3 ROB: 105 LSQ: 87 IQ: 96, IPC: 2.1930
EPOCH ENDS
EPOCH STARTS
TH0 ROB: 4 LSQ: 2 IQ: 0 IPC: 0.0013
TH1 ROB: 4 LSQ: 3 IQ: 0, IPC: 0.0018
TH2 ROB: 4 LSQ: 1 IQ: 0, IPC: 0.0006
TH3 ROB: 106 LSQ: 87 IQ: 96, IPC: 2.1930
EPOCH ENDS
EPOCH STARTS
TH0 ROB: 4 LSQ: 2 IQ: 0 IPC: 0.0013
TH1 ROB: 4 LSQ: 3 IQ: 0, IPC: 0.0017
TH2 ROB: 4 LSQ: 1 IQ: 0, IPC: 0.0006
TH3 ROB: 106 LSQ: 87 IQ: 96, IPC: 2.1931
EPOCH ENDS
EPOCH STARTS
TH0 ROB: 4 LSQ: 2 IQ: 0 IPC: 0.0013
TH1 ROB: 4 LSQ: 3 IQ: 0, IPC: 0.0017
TH2 ROB: 4 LSQ: 1 IQ: 0, IPC: 0.0006
TH3 ROB: 106 LSQ: 87 IQ: 96, IPC: 2.1931
EPOCH ENDS
EPOCH STARTS
TH0 ROB: 4 LSQ: 2 IQ: 0 IPC: 0.0013
TH1 ROB: 4 LSQ: 3 IQ: 0, IPC: 0.0017
TH2 ROB: 4 LSQ: 1 IQ: 0, IPC: 0.0006
TH3 ROB: 104 LSQ: 86 IQ: 96, IPC: 2.1931
EPOCH ENDS
EPOCH STARTS
TH0 ROB: 4 LSQ: 2 IQ: 0 IPC: 0.0013
TH1 ROB: 4 LSQ: 3 IQ: 0, IPC: 0.0017
TH2 ROB: 4 LSQ: 1 IQ: 0, IPC: 0.0006
TH3 ROB: 104 LSQ: 87 IQ: 96, IPC: 2.1931
EPOCH ENDS
EPOCH STARTS
TH0 ROB: 4 LSQ: 2 IQ: 0 IPC: 0.0013
TH1 ROB: 4 LSQ: 3 IQ: 0, IPC: 0.0017
TH2 ROB: 4 LSQ: 1 IQ: 0, IPC: 0.0006
TH3 ROB: 105 LSQ: 86 IQ: 96, IPC: 2.1931
EPOCH ENDS
EPOCH STARTS
TH0 ROB: 4 LSQ: 2 IQ: 0 IPC: 0.0013
TH1 ROB: 4 LSQ: 3 IQ: 0, IPC: 0.0017
TH2 ROB: 4 LSQ: 1 IQ: 0, IPC: 0.0006
TH3 ROB: 105 LSQ: 86 IQ: 96, IPC: 2.1931
EPOCH ENDS
EPOCH STARTS
TH0 ROB: 4 LSQ: 2 IQ: 0 IPC: 0.0013
TH1 ROB: 4 LSQ: 3 IQ: 0, IPC: 0.0017
TH2 ROB: 4 LSQ: 1 IQ: 0, IPC: 0.0006
TH3 ROB: 106 LSQ: 87 IQ: 96, IPC: 2.1932
EPOCH ENDS
EPOCH STARTS
TH0 ROB: 4 LSQ: 2 IQ: 0 IPC: 0.0013
TH1 ROB: 4 LSQ: 3 IQ: 0, IPC: 0.0017
TH2 ROB: 4 LSQ: 1 IQ: 0, IPC: 0.0006
TH3 ROB: 105 LSQ: 87 IQ: 96, IPC: 2.1932
EPOCH ENDS
EPOCH STARTS
TH0 ROB: 4 LSQ: 2 IQ: 0 IPC: 0.0013
TH1 ROB: 4 LSQ: 3 IQ: 0, IPC: 0.0017
TH2 ROB: 4 LSQ: 1 IQ: 0, IPC: 0.0006
TH3 ROB: 105 LSQ: 86 IQ: 96, IPC: 2.1932
EPOCH ENDS
EPOCH STARTS
TH0 ROB: 4 LSQ: 2 IQ: 0 IPC: 0.0013
TH1 ROB: 4 LSQ: 3 IQ: 0, IPC: 0.0017
TH2 ROB: 4 LSQ: 1 IQ: 0, IPC: 0.0006
TH3 ROB: 105 LSQ: 86 IQ: 96, IPC: 2.1932
EPOCH ENDS
EPOCH STARTS
TH0 ROB: 4 LSQ: 2 IQ: 0 IPC: 0.0013
TH1 ROB: 4 LSQ: 3 IQ: 0, IPC: 0.0017
TH2 ROB: 4 LSQ: 1 IQ: 0, IPC: 0.0006
TH3 ROB: 105 LSQ: 86 IQ: 96, IPC: 2.1932
EPOCH ENDS
EPOCH STARTS
TH0 ROB: 4 LSQ: 2 IQ: 0 IPC: 0.0013
TH1 ROB: 4 LSQ: 3 IQ: 0, IPC: 0.0016
TH2 ROB: 4 LSQ: 1 IQ: 0, IPC: 0.0006
TH3 ROB: 105 LSQ: 86 IQ: 96, IPC: 2.1932
EPOCH ENDS
EPOCH STARTS
TH0 ROB: 4 LSQ: 2 IQ: 0 IPC: 0.0013
TH1 ROB: 4 LSQ: 3 IQ: 0, IPC: 0.0016
TH2 ROB: 4 LSQ: 1 IQ: 0, IPC: 0.0006
TH3 ROB: 105 LSQ: 87 IQ: 96, IPC: 2.1932
EPOCH ENDS
EPOCH STARTS
TH0 ROB: 4 LSQ: 2 IQ: 0 IPC: 0.0013
TH1 ROB: 4 LSQ: 3 IQ: 0, IPC: 0.0016
TH2 ROB: 4 LSQ: 1 IQ: 0, IPC: 0.0006
TH3 ROB: 105 LSQ: 86 IQ: 96, IPC: 2.1933
EPOCH ENDS
EPOCH STARTS
TH0 ROB: 4 LSQ: 2 IQ: 0 IPC: 0.0012
TH1 ROB: 4 LSQ: 3 IQ: 0, IPC: 0.0016
TH2 ROB: 4 LSQ: 1 IQ: 0, IPC: 0.0005
TH3 ROB: 105 LSQ: 86 IQ: 96, IPC: 2.1933
EPOCH ENDS
EPOCH STARTS
TH0 ROB: 4 LSQ: 2 IQ: 0 IPC: 0.0012
TH1 ROB: 4 LSQ: 3 IQ: 0, IPC: 0.0016
TH2 ROB: 4 LSQ: 1 IQ: 0, IPC: 0.0005
TH3 ROB: 105 LSQ: 86 IQ: 96, IPC: 2.1933
EPOCH ENDS
EPOCH STARTS
TH0 ROB: 4 LSQ: 2 IQ: 0 IPC: 0.0012
TH1 ROB: 4 LSQ: 3 IQ: 0, IPC: 0.0016
TH2 ROB: 4 LSQ: 1 IQ: 0, IPC: 0.0005
TH3 ROB: 105 LSQ: 87 IQ: 96, IPC: 2.1933
EPOCH ENDS
EPOCH STARTS
TH0 ROB: 4 LSQ: 2 IQ: 0 IPC: 0.0012
TH1 ROB: 4 LSQ: 3 IQ: 0, IPC: 0.0016
TH2 ROB: 4 LSQ: 1 IQ: 0, IPC: 0.0005
TH3 ROB: 105 LSQ: 88 IQ: 96, IPC: 2.1933
EPOCH ENDS
EPOCH STARTS
TH0 ROB: 4 LSQ: 2 IQ: 0 IPC: 0.0012
TH1 ROB: 4 LSQ: 3 IQ: 0, IPC: 0.0016
TH2 ROB: 4 LSQ: 1 IQ: 0, IPC: 0.0005
TH3 ROB: 104 LSQ: 85 IQ: 96, IPC: 2.1933
EPOCH ENDS
EPOCH STARTS
TH0 ROB: 4 LSQ: 2 IQ: 0 IPC: 0.0012
TH1 ROB: 4 LSQ: 3 IQ: 0, IPC: 0.0016
TH2 ROB: 4 LSQ: 1 IQ: 0, IPC: 0.0005
TH3 ROB: 104 LSQ: 85 IQ: 96, IPC: 2.1933
EPOCH ENDS
EPOCH STARTS
TH0 ROB: 4 LSQ: 2 IQ: 0 IPC: 0.0012
TH1 ROB: 4 LSQ: 3 IQ: 0, IPC: 0.0016
TH2 ROB: 4 LSQ: 1 IQ: 0, IPC: 0.0005
TH3 ROB: 105 LSQ: 86 IQ: 96, IPC: 2.1933
EPOCH ENDS
EPOCH STARTS
TH0 ROB: 4 LSQ: 2 IQ: 0 IPC: 0.0012
TH1 ROB: 4 LSQ: 3 IQ: 0, IPC: 0.0016
TH2 ROB: 4 LSQ: 1 IQ: 0, IPC: 0.0005
TH3 ROB: 105 LSQ: 87 IQ: 96, IPC: 2.1934
EPOCH ENDS
EPOCH STARTS
TH0 ROB: 4 LSQ: 2 IQ: 0 IPC: 0.0012
TH1 ROB: 4 LSQ: 3 IQ: 0, IPC: 0.0016
TH2 ROB: 4 LSQ: 1 IQ: 0, IPC: 0.0005
TH3 ROB: 106 LSQ: 87 IQ: 96, IPC: 2.1934
EPOCH ENDS
EPOCH STARTS
TH0 ROB: 4 LSQ: 2 IQ: 0 IPC: 0.0012
TH1 ROB: 4 LSQ: 3 IQ: 0, IPC: 0.0016
TH2 ROB: 4 LSQ: 1 IQ: 0, IPC: 0.0005
TH3 ROB: 104 LSQ: 85 IQ: 96, IPC: 2.1934
EPOCH ENDS
EPOCH STARTS
TH0 ROB: 4 LSQ: 2 IQ: 0 IPC: 0.0012
TH1 ROB: 4 LSQ: 3 IQ: 0, IPC: 0.0015
TH2 ROB: 4 LSQ: 1 IQ: 0, IPC: 0.0005
TH3 ROB: 104 LSQ: 85 IQ: 96, IPC: 2.1934
EPOCH ENDS
EPOCH STARTS
TH0 ROB: 4 LSQ: 2 IQ: 0 IPC: 0.0012
TH1 ROB: 4 LSQ: 3 IQ: 0, IPC: 0.0015
TH2 ROB: 4 LSQ: 1 IQ: 0, IPC: 0.0005
TH3 ROB: 104 LSQ: 85 IQ: 96, IPC: 2.1934
EPOCH ENDS
EPOCH STARTS
TH0 ROB: 4 LSQ: 2 IQ: 0 IPC: 0.0012
TH1 ROB: 4 LSQ: 3 IQ: 0, IPC: 0.0015
TH2 ROB: 4 LSQ: 1 IQ: 0, IPC: 0.0005
TH3 ROB: 105 LSQ: 87 IQ: 96, IPC: 2.1934
EPOCH ENDS
EPOCH STARTS
TH0 ROB: 4 LSQ: 2 IQ: 0 IPC: 0.0012
TH1 ROB: 4 LSQ: 3 IQ: 0, IPC: 0.0015
TH2 ROB: 4 LSQ: 1 IQ: 0, IPC: 0.0005
TH3 ROB: 105 LSQ: 86 IQ: 96, IPC: 2.1934
EPOCH ENDS
EPOCH STARTS
TH0 ROB: 4 LSQ: 2 IQ: 0 IPC: 0.0012
TH1 ROB: 4 LSQ: 3 IQ: 0, IPC: 0.0015
TH2 ROB: 4 LSQ: 1 IQ: 0, IPC: 0.0005
TH3 ROB: 104 LSQ: 85 IQ: 96, IPC: 2.1935
EPOCH ENDS
EPOCH STARTS
TH0 ROB: 4 LSQ: 2 IQ: 0 IPC: 0.0012
TH1 ROB: 4 LSQ: 3 IQ: 0, IPC: 0.0015
TH2 ROB: 4 LSQ: 1 IQ: 0, IPC: 0.0005
TH3 ROB: 104 LSQ: 85 IQ: 96, IPC: 2.1935
EPOCH ENDS
EPOCH STARTS
TH0 ROB: 4 LSQ: 2 IQ: 0 IPC: 0.0012
TH1 ROB: 4 LSQ: 3 IQ: 0, IPC: 0.0015
TH2 ROB: 4 LSQ: 1 IQ: 0, IPC: 0.0005
TH3 ROB: 104 LSQ: 87 IQ: 96, IPC: 2.1935
EPOCH ENDS
EPOCH STARTS
TH0 ROB: 4 LSQ: 2 IQ: 0 IPC: 0.0011
TH1 ROB: 4 LSQ: 3 IQ: 0, IPC: 0.0015
TH2 ROB: 4 LSQ: 1 IQ: 0, IPC: 0.0005
TH3 ROB: 105 LSQ: 87 IQ: 96, IPC: 2.1935
EPOCH ENDS
EPOCH STARTS
TH0 ROB: 4 LSQ: 2 IQ: 0 IPC: 0.0011
TH1 ROB: 4 LSQ: 3 IQ: 0, IPC: 0.0015
TH2 ROB: 4 LSQ: 1 IQ: 0, IPC: 0.0005
TH3 ROB: 105 LSQ: 85 IQ: 96, IPC: 2.1935
EPOCH ENDS
EPOCH STARTS
TH0 ROB: 4 LSQ: 2 IQ: 0 IPC: 0.0011
TH1 ROB: 4 LSQ: 3 IQ: 0, IPC: 0.0015
TH2 ROB: 4 LSQ: 1 IQ: 0, IPC: 0.0005
TH3 ROB: 104 LSQ: 85 IQ: 96, IPC: 2.1935
EPOCH ENDS
EPOCH STARTS
TH0 ROB: 4 LSQ: 2 IQ: 0 IPC: 0.0011
TH1 ROB: 4 LSQ: 3 IQ: 0, IPC: 0.0015
TH2 ROB: 4 LSQ: 1 IQ: 0, IPC: 0.0005
TH3 ROB: 104 LSQ: 85 IQ: 96, IPC: 2.1935
EPOCH ENDS
EPOCH STARTS
TH0 ROB: 4 LSQ: 2 IQ: 0 IPC: 0.0011
TH1 ROB: 4 LSQ: 3 IQ: 0, IPC: 0.0015
TH2 ROB: 4 LSQ: 1 IQ: 0, IPC: 0.0005
TH3 ROB: 104 LSQ: 86 IQ: 96, IPC: 2.1935
EPOCH ENDS
EPOCH STARTS
TH0 ROB: 4 LSQ: 2 IQ: 0 IPC: 0.0011
TH1 ROB: 4 LSQ: 3 IQ: 0, IPC: 0.0015
TH2 ROB: 4 LSQ: 1 IQ: 0, IPC: 0.0005
TH3 ROB: 107 LSQ: 88 IQ: 96, IPC: 2.1935
EPOCH ENDS
EPOCH STARTS
TH0 ROB: 4 LSQ: 2 IQ: 0 IPC: 0.0011
TH1 ROB: 4 LSQ: 3 IQ: 0, IPC: 0.0015
TH2 ROB: 4 LSQ: 1 IQ: 0, IPC: 0.0005
TH3 ROB: 105 LSQ: 86 IQ: 96, IPC: 2.1936
EPOCH ENDS
EPOCH STARTS
TH0 ROB: 4 LSQ: 2 IQ: 0 IPC: 0.0011
TH1 ROB: 4 LSQ: 3 IQ: 0, IPC: 0.0014
TH2 ROB: 4 LSQ: 1 IQ: 0, IPC: 0.0005
TH3 ROB: 105 LSQ: 85 IQ: 96, IPC: 2.1936
EPOCH ENDS
EPOCH STARTS
TH0 ROB: 4 LSQ: 2 IQ: 0 IPC: 0.0011
TH1 ROB: 4 LSQ: 3 IQ: 0, IPC: 0.0014
TH2 ROB: 4 LSQ: 1 IQ: 0, IPC: 0.0005
TH3 ROB: 104 LSQ: 85 IQ: 96, IPC: 2.1936
EPOCH ENDS
EPOCH STARTS
TH0 ROB: 4 LSQ: 2 IQ: 0 IPC: 0.0011
TH1 ROB: 4 LSQ: 3 IQ: 0, IPC: 0.0014
TH2 ROB: 4 LSQ: 1 IQ: 0, IPC: 0.0005
TH3 ROB: 105 LSQ: 87 IQ: 96, IPC: 2.1936
EPOCH ENDS
EPOCH STARTS
TH0 ROB: 4 LSQ: 2 IQ: 0 IPC: 0.0011
TH1 ROB: 4 LSQ: 3 IQ: 0, IPC: 0.0014
TH2 ROB: 4 LSQ: 1 IQ: 0, IPC: 0.0005
TH3 ROB: 105 LSQ: 86 IQ: 96, IPC: 2.1936
EPOCH ENDS
EPOCH STARTS
TH0 ROB: 4 LSQ: 2 IQ: 0 IPC: 0.0011
TH1 ROB: 4 LSQ: 3 IQ: 0, IPC: 0.0014
TH2 ROB: 4 LSQ: 1 IQ: 0, IPC: 0.0005
TH3 ROB: 104 LSQ: 85 IQ: 96, IPC: 2.1936
EPOCH ENDS
EPOCH STARTS
TH0 ROB: 4 LSQ: 2 IQ: 0 IPC: 0.0011
TH1 ROB: 4 LSQ: 3 IQ: 0, IPC: 0.0014
TH2 ROB: 4 LSQ: 1 IQ: 0, IPC: 0.0005
TH3 ROB: 105 LSQ: 86 IQ: 96, IPC: 2.1936
EPOCH ENDS
EPOCH STARTS
TH0 ROB: 4 LSQ: 2 IQ: 0 IPC: 0.0011
TH1 ROB: 4 LSQ: 3 IQ: 0, IPC: 0.0014
TH2 ROB: 4 LSQ: 1 IQ: 0, IPC: 0.0005
TH3 ROB: 105 LSQ: 87 IQ: 96, IPC: 2.1936
EPOCH ENDS
EPOCH STARTS
TH0 ROB: 4 LSQ: 2 IQ: 0 IPC: 0.0011
TH1 ROB: 4 LSQ: 3 IQ: 0, IPC: 0.0014
TH2 ROB: 4 LSQ: 1 IQ: 0, IPC: 0.0005
TH3 ROB: 105 LSQ: 87 IQ: 96, IPC: 2.1936
EPOCH ENDS
EPOCH STARTS
TH0 ROB: 4 LSQ: 2 IQ: 0 IPC: 0.0011
TH1 ROB: 4 LSQ: 3 IQ: 0, IPC: 0.0014
TH2 ROB: 4 LSQ: 1 IQ: 0, IPC: 0.0005
TH3 ROB: 106 LSQ: 87 IQ: 96, IPC: 2.1937
EPOCH ENDS
EPOCH STARTS
TH0 ROB: 4 LSQ: 2 IQ: 0 IPC: 0.0011
TH1 ROB: 4 LSQ: 3 IQ: 0, IPC: 0.0014
TH2 ROB: 4 LSQ: 1 IQ: 0, IPC: 0.0005
TH3 ROB: 104 LSQ: 85 IQ: 96, IPC: 2.1937
EPOCH ENDS
EPOCH STARTS
TH0 ROB: 4 LSQ: 2 IQ: 0 IPC: 0.0011
TH1 ROB: 4 LSQ: 3 IQ: 0, IPC: 0.0014
TH2 ROB: 4 LSQ: 1 IQ: 0, IPC: 0.0005
TH3 ROB: 104 LSQ: 85 IQ: 96, IPC: 2.1937
EPOCH ENDS
EPOCH STARTS
TH0 ROB: 4 LSQ: 2 IQ: 0 IPC: 0.0011
TH1 ROB: 4 LSQ: 3 IQ: 0, IPC: 0.0014
TH2 ROB: 4 LSQ: 1 IQ: 0, IPC: 0.0005
TH3 ROB: 105 LSQ: 87 IQ: 96, IPC: 2.1937
EPOCH ENDS
EPOCH STARTS
TH0 ROB: 4 LSQ: 2 IQ: 0 IPC: 0.0011
TH1 ROB: 4 LSQ: 3 IQ: 0, IPC: 0.0014
TH2 ROB: 4 LSQ: 1 IQ: 0, IPC: 0.0005
TH3 ROB: 106 LSQ: 87 IQ: 96, IPC: 2.1937
EPOCH ENDS
EPOCH STARTS
TH0 ROB: 4 LSQ: 2 IQ: 0 IPC: 0.0011
TH1 ROB: 4 LSQ: 3 IQ: 0, IPC: 0.0014
TH2 ROB: 4 LSQ: 1 IQ: 0, IPC: 0.0005
TH3 ROB: 106 LSQ: 87 IQ: 96, IPC: 2.1937
EPOCH ENDS
EPOCH STARTS
TH0 ROB: 4 LSQ: 2 IQ: 0 IPC: 0.0010
TH1 ROB: 4 LSQ: 3 IQ: 0, IPC: 0.0014
TH2 ROB: 4 LSQ: 1 IQ: 0, IPC: 0.0005
TH3 ROB: 106 LSQ: 87 IQ: 96, IPC: 2.1937
EPOCH ENDS
EPOCH STARTS
TH0 ROB: 4 LSQ: 2 IQ: 0 IPC: 0.0010
TH1 ROB: 4 LSQ: 3 IQ: 0, IPC: 0.0014
TH2 ROB: 4 LSQ: 1 IQ: 0, IPC: 0.0005
TH3 ROB: 104 LSQ: 86 IQ: 96, IPC: 2.1937
EPOCH ENDS
EPOCH STARTS
TH0 ROB: 4 LSQ: 2 IQ: 0 IPC: 0.0010
TH1 ROB: 4 LSQ: 3 IQ: 0, IPC: 0.0014
TH2 ROB: 4 LSQ: 1 IQ: 0, IPC: 0.0005
TH3 ROB: 104 LSQ: 87 IQ: 96, IPC: 2.1937
EPOCH ENDS
EPOCH STARTS
TH0 ROB: 4 LSQ: 2 IQ: 0 IPC: 0.0010
TH1 ROB: 4 LSQ: 3 IQ: 0, IPC: 0.0013
TH2 ROB: 4 LSQ: 1 IQ: 0, IPC: 0.0005
TH3 ROB: 105 LSQ: 86 IQ: 96, IPC: 2.1937
EPOCH ENDS
EPOCH STARTS
TH0 ROB: 4 LSQ: 2 IQ: 0 IPC: 0.0010
TH1 ROB: 4 LSQ: 3 IQ: 0, IPC: 0.0013
TH2 ROB: 4 LSQ: 1 IQ: 0, IPC: 0.0005
TH3 ROB: 105 LSQ: 86 IQ: 96, IPC: 2.1938
EPOCH ENDS
EPOCH STARTS
TH0 ROB: 4 LSQ: 2 IQ: 0 IPC: 0.0010
TH1 ROB: 4 LSQ: 3 IQ: 0, IPC: 0.0013
TH2 ROB: 4 LSQ: 1 IQ: 0, IPC: 0.0005
TH3 ROB: 106 LSQ: 87 IQ: 96, IPC: 2.1938
EPOCH ENDS
EPOCH STARTS
TH0 ROB: 4 LSQ: 2 IQ: 0 IPC: 0.0010
TH1 ROB: 4 LSQ: 3 IQ: 0, IPC: 0.0013
TH2 ROB: 4 LSQ: 1 IQ: 0, IPC: 0.0005
TH3 ROB: 105 LSQ: 87 IQ: 96, IPC: 2.1938
EPOCH ENDS
EPOCH STARTS
TH0 ROB: 4 LSQ: 2 IQ: 0 IPC: 0.0010
TH1 ROB: 4 LSQ: 3 IQ: 0, IPC: 0.0013
TH2 ROB: 4 LSQ: 1 IQ: 0, IPC: 0.0004
TH3 ROB: 105 LSQ: 86 IQ: 96, IPC: 2.1938
EPOCH ENDS
EPOCH STARTS
TH0 ROB: 4 LSQ: 2 IQ: 0 IPC: 0.0010
TH1 ROB: 4 LSQ: 3 IQ: 0, IPC: 0.0013
TH2 ROB: 4 LSQ: 1 IQ: 0, IPC: 0.0004
TH3 ROB: 105 LSQ: 86 IQ: 96, IPC: 2.1938
EPOCH ENDS
EPOCH STARTS
TH0 ROB: 4 LSQ: 2 IQ: 0 IPC: 0.0010
TH1 ROB: 4 LSQ: 3 IQ: 0, IPC: 0.0013
TH2 ROB: 4 LSQ: 1 IQ: 0, IPC: 0.0004
TH3 ROB: 105 LSQ: 86 IQ: 96, IPC: 2.1938
EPOCH ENDS
EPOCH STARTS
TH0 ROB: 4 LSQ: 2 IQ: 0 IPC: 0.0010
TH1 ROB: 4 LSQ: 3 IQ: 0, IPC: 0.0013
TH2 ROB: 4 LSQ: 1 IQ: 0, IPC: 0.0004
TH3 ROB: 105 LSQ: 86 IQ: 96, IPC: 2.1938
EPOCH ENDS
EPOCH STARTS
TH0 ROB: 4 LSQ: 2 IQ: 0 IPC: 0.0010
TH1 ROB: 4 LSQ: 3 IQ: 0, IPC: 0.0013
TH2 ROB: 4 LSQ: 1 IQ: 0, IPC: 0.0004
TH3 ROB: 105 LSQ: 87 IQ: 96, IPC: 2.1938
EPOCH ENDS
EPOCH STARTS
TH0 ROB: 4 LSQ: 2 IQ: 0 IPC: 0.0010
TH1 ROB: 4 LSQ: 3 IQ: 0, IPC: 0.0013
TH2 ROB: 4 LSQ: 1 IQ: 0, IPC: 0.0004
TH3 ROB: 105 LSQ: 86 IQ: 96, IPC: 2.1938
EPOCH ENDS
EPOCH STARTS
TH0 ROB: 4 LSQ: 2 IQ: 0 IPC: 0.0010
TH1 ROB: 4 LSQ: 3 IQ: 0, IPC: 0.0013
TH2 ROB: 4 LSQ: 1 IQ: 0, IPC: 0.0004
TH3 ROB: 105 LSQ: 86 IQ: 96, IPC: 2.1938
EPOCH ENDS
EPOCH STARTS
TH0 ROB: 4 LSQ: 2 IQ: 0 IPC: 0.0010
TH1 ROB: 4 LSQ: 3 IQ: 0, IPC: 0.0013
TH2 ROB: 4 LSQ: 1 IQ: 0, IPC: 0.0004
TH3 ROB: 105 LSQ: 86 IQ: 96, IPC: 2.1938
EPOCH ENDS
EPOCH STARTS
TH0 ROB: 4 LSQ: 2 IQ: 0 IPC: 0.0010
TH1 ROB: 4 LSQ: 3 IQ: 0, IPC: 0.0013
TH2 ROB: 4 LSQ: 1 IQ: 0, IPC: 0.0004
TH3 ROB: 105 LSQ: 87 IQ: 96, IPC: 2.1939
EPOCH ENDS
EPOCH STARTS
TH0 ROB: 4 LSQ: 2 IQ: 0 IPC: 0.0010
TH1 ROB: 4 LSQ: 3 IQ: 0, IPC: 0.0013
TH2 ROB: 4 LSQ: 1 IQ: 0, IPC: 0.0004
TH3 ROB: 105 LSQ: 88 IQ: 96, IPC: 2.1939
EPOCH ENDS
EPOCH STARTS
TH0 ROB: 4 LSQ: 2 IQ: 0 IPC: 0.0010
TH1 ROB: 4 LSQ: 3 IQ: 0, IPC: 0.0013
TH2 ROB: 4 LSQ: 1 IQ: 0, IPC: 0.0004
TH3 ROB: 104 LSQ: 85 IQ: 96, IPC: 2.1939
EPOCH ENDS
EPOCH STARTS
TH0 ROB: 4 LSQ: 2 IQ: 0 IPC: 0.0010
TH1 ROB: 4 LSQ: 3 IQ: 0, IPC: 0.0013
TH2 ROB: 4 LSQ: 1 IQ: 0, IPC: 0.0004
TH3 ROB: 104 LSQ: 85 IQ: 96, IPC: 2.1939
EPOCH ENDS
EPOCH STARTS
TH0 ROB: 4 LSQ: 2 IQ: 0 IPC: 0.0010
TH1 ROB: 4 LSQ: 3 IQ: 0, IPC: 0.0013
TH2 ROB: 4 LSQ: 1 IQ: 0, IPC: 0.0004
TH3 ROB: 105 LSQ: 86 IQ: 96, IPC: 2.1939
EPOCH ENDS
EPOCH STARTS
TH0 ROB: 4 LSQ: 2 IQ: 0 IPC: 0.0010
TH1 ROB: 4 LSQ: 3 IQ: 0, IPC: 0.0013
TH2 ROB: 4 LSQ: 1 IQ: 0, IPC: 0.0004
TH3 ROB: 105 LSQ: 87 IQ: 96, IPC: 2.1939
EPOCH ENDS
EPOCH STARTS
TH0 ROB: 4 LSQ: 2 IQ: 0 IPC: 0.0010
TH1 ROB: 4 LSQ: 3 IQ: 0, IPC: 0.0013
TH2 ROB: 4 LSQ: 1 IQ: 0, IPC: 0.0004
TH3 ROB: 106 LSQ: 87 IQ: 96, IPC: 2.1939
EPOCH ENDS
EPOCH STARTS
TH0 ROB: 4 LSQ: 2 IQ: 0 IPC: 0.0010
TH1 ROB: 4 LSQ: 3 IQ: 0, IPC: 0.0012
TH2 ROB: 4 LSQ: 1 IQ: 0, IPC: 0.0004
TH3 ROB: 104 LSQ: 85 IQ: 96, IPC: 2.1939
EPOCH ENDS
EPOCH STARTS
TH0 ROB: 4 LSQ: 2 IQ: 0 IPC: 0.0010
TH1 ROB: 4 LSQ: 3 IQ: 0, IPC: 0.0012
TH2 ROB: 4 LSQ: 1 IQ: 0, IPC: 0.0004
TH3 ROB: 104 LSQ: 85 IQ: 96, IPC: 2.1939
EPOCH ENDS
EPOCH STARTS
TH0 ROB: 4 LSQ: 2 IQ: 0 IPC: 0.0010
TH1 ROB: 4 LSQ: 3 IQ: 0, IPC: 0.0012
TH2 ROB: 4 LSQ: 1 IQ: 0, IPC: 0.0004
TH3 ROB: 104 LSQ: 85 IQ: 96, IPC: 2.1939
EPOCH ENDS
EPOCH STARTS
TH0 ROB: 4 LSQ: 2 IQ: 0 IPC: 0.0009
TH1 ROB: 4 LSQ: 3 IQ: 0, IPC: 0.0012
TH2 ROB: 4 LSQ: 1 IQ: 0, IPC: 0.0004
TH3 ROB: 105 LSQ: 87 IQ: 96, IPC: 2.1939
EPOCH ENDS
EPOCH STARTS
TH0 ROB: 4 LSQ: 2 IQ: 0 IPC: 0.0009
TH1 ROB: 4 LSQ: 3 IQ: 0, IPC: 0.0012
TH2 ROB: 4 LSQ: 1 IQ: 0, IPC: 0.0004
TH3 ROB: 105 LSQ: 86 IQ: 96, IPC: 2.1939
EPOCH ENDS
EPOCH STARTS
TH0 ROB: 4 LSQ: 2 IQ: 0 IPC: 0.0009
TH1 ROB: 4 LSQ: 3 IQ: 0, IPC: 0.0012
TH2 ROB: 4 LSQ: 1 IQ: 0, IPC: 0.0004
TH3 ROB: 104 LSQ: 85 IQ: 96, IPC: 2.1940
EPOCH ENDS
EPOCH STARTS
TH0 ROB: 4 LSQ: 2 IQ: 0 IPC: 0.0009
TH1 ROB: 4 LSQ: 3 IQ: 0, IPC: 0.0012
TH2 ROB: 4 LSQ: 1 IQ: 0, IPC: 0.0004
TH3 ROB: 104 LSQ: 85 IQ: 96, IPC: 2.1940
EPOCH ENDS
EPOCH STARTS
TH0 ROB: 4 LSQ: 2 IQ: 0 IPC: 0.0009
TH1 ROB: 4 LSQ: 3 IQ: 0, IPC: 0.0012
TH2 ROB: 4 LSQ: 1 IQ: 0, IPC: 0.0004
TH3 ROB: 104 LSQ: 87 IQ: 96, IPC: 2.1940
EPOCH ENDS
EPOCH STARTS
TH0 ROB: 4 LSQ: 2 IQ: 0 IPC: 0.0009
TH1 ROB: 4 LSQ: 3 IQ: 0, IPC: 0.0012
TH2 ROB: 4 LSQ: 1 IQ: 0, IPC: 0.0004
TH3 ROB: 105 LSQ: 87 IQ: 96, IPC: 2.1940
EPOCH ENDS
EPOCH STARTS
TH0 ROB: 4 LSQ: 2 IQ: 0 IPC: 0.0009
TH1 ROB: 4 LSQ: 3 IQ: 0, IPC: 0.0012
TH2 ROB: 4 LSQ: 1 IQ: 0, IPC: 0.0004
TH3 ROB: 105 LSQ: 85 IQ: 96, IPC: 2.1940
EPOCH ENDS
EPOCH STARTS
TH0 ROB: 4 LSQ: 2 IQ: 0 IPC: 0.0009
TH1 ROB: 4 LSQ: 3 IQ: 0, IPC: 0.0012
TH2 ROB: 4 LSQ: 1 IQ: 0, IPC: 0.0004
TH3 ROB: 104 LSQ: 85 IQ: 96, IPC: 2.1940
EPOCH ENDS
EPOCH STARTS
TH0 ROB: 4 LSQ: 2 IQ: 0 IPC: 0.0009
TH1 ROB: 4 LSQ: 3 IQ: 0, IPC: 0.0012
TH2 ROB: 4 LSQ: 1 IQ: 0, IPC: 0.0004
TH3 ROB: 104 LSQ: 85 IQ: 96, IPC: 2.1940
EPOCH ENDS
EPOCH STARTS
TH0 ROB: 4 LSQ: 2 IQ: 0 IPC: 0.0009
TH1 ROB: 4 LSQ: 3 IQ: 0, IPC: 0.0012
TH2 ROB: 4 LSQ: 1 IQ: 0, IPC: 0.0004
TH3 ROB: 104 LSQ: 86 IQ: 96, IPC: 2.1940
EPOCH ENDS
EPOCH STARTS
TH0 ROB: 4 LSQ: 2 IQ: 0 IPC: 0.0009
TH1 ROB: 4 LSQ: 3 IQ: 0, IPC: 0.0012
TH2 ROB: 4 LSQ: 1 IQ: 0, IPC: 0.0004
TH3 ROB: 107 LSQ: 88 IQ: 96, IPC: 2.1940
EPOCH ENDS
EPOCH STARTS
TH0 ROB: 4 LSQ: 2 IQ: 0 IPC: 0.0009
TH1 ROB: 4 LSQ: 3 IQ: 0, IPC: 0.0012
TH2 ROB: 4 LSQ: 1 IQ: 0, IPC: 0.0004
TH3 ROB: 105 LSQ: 86 IQ: 96, IPC: 2.1940
EPOCH ENDS
EPOCH STARTS
TH0 ROB: 4 LSQ: 2 IQ: 0 IPC: 0.0009
TH1 ROB: 4 LSQ: 3 IQ: 0, IPC: 0.0012
TH2 ROB: 4 LSQ: 1 IQ: 0, IPC: 0.0004
TH3 ROB: 105 LSQ: 85 IQ: 96, IPC: 2.1940
EPOCH ENDS
EPOCH STARTS
TH0 ROB: 4 LSQ: 2 IQ: 0 IPC: 0.0009
TH1 ROB: 4 LSQ: 3 IQ: 0, IPC: 0.0012
TH2 ROB: 4 LSQ: 1 IQ: 0, IPC: 0.0004
TH3 ROB: 104 LSQ: 85 IQ: 96, IPC: 2.1940
EPOCH ENDS
EPOCH STARTS
TH0 ROB: 4 LSQ: 2 IQ: 0 IPC: 0.0009
TH1 ROB: 4 LSQ: 3 IQ: 0, IPC: 0.0012
TH2 ROB: 4 LSQ: 1 IQ: 0, IPC: 0.0004
TH3 ROB: 105 LSQ: 87 IQ: 96, IPC: 2.1940
EPOCH ENDS
EPOCH STARTS
TH0 ROB: 4 LSQ: 2 IQ: 0 IPC: 0.0009
TH1 ROB: 4 LSQ: 3 IQ: 0, IPC: 0.0012
TH2 ROB: 4 LSQ: 1 IQ: 0, IPC: 0.0004
TH3 ROB: 105 LSQ: 86 IQ: 96, IPC: 2.1941
EPOCH ENDS
EPOCH STARTS
TH0 ROB: 4 LSQ: 2 IQ: 0 IPC: 0.0009
TH1 ROB: 4 LSQ: 3 IQ: 0, IPC: 0.0012
TH2 ROB: 4 LSQ: 1 IQ: 0, IPC: 0.0004
TH3 ROB: 104 LSQ: 85 IQ: 96, IPC: 2.1941
EPOCH ENDS
EPOCH STARTS
TH0 ROB: 4 LSQ: 2 IQ: 0 IPC: 0.0009
TH1 ROB: 4 LSQ: 3 IQ: 0, IPC: 0.0012
TH2 ROB: 4 LSQ: 1 IQ: 0, IPC: 0.0004
TH3 ROB: 105 LSQ: 86 IQ: 96, IPC: 2.1941
EPOCH ENDS
EPOCH STARTS
TH0 ROB: 4 LSQ: 2 IQ: 0 IPC: 0.0009
TH1 ROB: 4 LSQ: 3 IQ: 0, IPC: 0.0012
TH2 ROB: 4 LSQ: 1 IQ: 0, IPC: 0.0004
TH3 ROB: 105 LSQ: 87 IQ: 96, IPC: 2.1941
EPOCH ENDS
EPOCH STARTS
TH0 ROB: 4 LSQ: 2 IQ: 0 IPC: 0.0009
TH1 ROB: 4 LSQ: 3 IQ: 0, IPC: 0.0012
TH2 ROB: 4 LSQ: 1 IQ: 0, IPC: 0.0004
TH3 ROB: 105 LSQ: 87 IQ: 96, IPC: 2.1941
EPOCH ENDS
EPOCH STARTS
TH0 ROB: 4 LSQ: 2 IQ: 0 IPC: 0.0009
TH1 ROB: 4 LSQ: 3 IQ: 0, IPC: 0.0011
TH2 ROB: 4 LSQ: 1 IQ: 0, IPC: 0.0004
TH3 ROB: 106 LSQ: 87 IQ: 96, IPC: 2.1941
EPOCH ENDS
EPOCH STARTS
TH0 ROB: 4 LSQ: 2 IQ: 0 IPC: 0.0009
TH1 ROB: 4 LSQ: 3 IQ: 0, IPC: 0.0011
TH2 ROB: 4 LSQ: 1 IQ: 0, IPC: 0.0004
TH3 ROB: 104 LSQ: 85 IQ: 96, IPC: 2.1941
EPOCH ENDS
EPOCH STARTS
TH0 ROB: 4 LSQ: 2 IQ: 0 IPC: 0.0009
TH1 ROB: 4 LSQ: 3 IQ: 0, IPC: 0.0011
TH2 ROB: 4 LSQ: 1 IQ: 0, IPC: 0.0004
TH3 ROB: 104 LSQ: 85 IQ: 96, IPC: 2.1941
EPOCH ENDS
EPOCH STARTS
TH0 ROB: 4 LSQ: 2 IQ: 0 IPC: 0.0009
TH1 ROB: 4 LSQ: 3 IQ: 0, IPC: 0.0011
TH2 ROB: 4 LSQ: 1 IQ: 0, IPC: 0.0004
TH3 ROB: 105 LSQ: 87 IQ: 96, IPC: 2.1941
EPOCH ENDS
EPOCH STARTS
TH0 ROB: 4 LSQ: 2 IQ: 0 IPC: 0.0009
TH1 ROB: 4 LSQ: 3 IQ: 0, IPC: 0.0011
TH2 ROB: 4 LSQ: 1 IQ: 0, IPC: 0.0004
TH3 ROB: 106 LSQ: 87 IQ: 96, IPC: 2.1941
EPOCH ENDS
EPOCH STARTS
TH0 ROB: 4 LSQ: 2 IQ: 0 IPC: 0.0009
TH1 ROB: 4 LSQ: 3 IQ: 0, IPC: 0.0011
TH2 ROB: 4 LSQ: 1 IQ: 0, IPC: 0.0004
TH3 ROB: 106 LSQ: 87 IQ: 96, IPC: 2.1941
EPOCH ENDS
EPOCH STARTS
TH0 ROB: 4 LSQ: 2 IQ: 0 IPC: 0.0009
TH1 ROB: 4 LSQ: 3 IQ: 0, IPC: 0.0011
TH2 ROB: 4 LSQ: 1 IQ: 0, IPC: 0.0004
TH3 ROB: 106 LSQ: 87 IQ: 96, IPC: 2.1941
EPOCH ENDS
EPOCH STARTS
TH0 ROB: 4 LSQ: 2 IQ: 0 IPC: 0.0009
TH1 ROB: 4 LSQ: 3 IQ: 0, IPC: 0.0011
TH2 ROB: 4 LSQ: 1 IQ: 0, IPC: 0.0004
TH3 ROB: 104 LSQ: 86 IQ: 96, IPC: 2.1941
EPOCH ENDS
EPOCH STARTS
TH0 ROB: 4 LSQ: 2 IQ: 0 IPC: 0.0009
TH1 ROB: 4 LSQ: 3 IQ: 0, IPC: 0.0011
TH2 ROB: 4 LSQ: 1 IQ: 0, IPC: 0.0004
TH3 ROB: 104 LSQ: 87 IQ: 96, IPC: 2.1941
EPOCH ENDS
EPOCH STARTS
TH0 ROB: 4 LSQ: 2 IQ: 0 IPC: 0.0009
TH1 ROB: 4 LSQ: 3 IQ: 0, IPC: 0.0011
TH2 ROB: 4 LSQ: 1 IQ: 0, IPC: 0.0004
TH3 ROB: 105 LSQ: 86 IQ: 96, IPC: 2.1942
EPOCH ENDS
EPOCH STARTS
TH0 ROB: 4 LSQ: 2 IQ: 0 IPC: 0.0008
TH1 ROB: 4 LSQ: 3 IQ: 0, IPC: 0.0011
TH2 ROB: 4 LSQ: 1 IQ: 0, IPC: 0.0004
TH3 ROB: 105 LSQ: 86 IQ: 96, IPC: 2.1942
EPOCH ENDS
EPOCH STARTS
TH0 ROB: 4 LSQ: 2 IQ: 0 IPC: 0.0008
TH1 ROB: 4 LSQ: 3 IQ: 0, IPC: 0.0011
TH2 ROB: 4 LSQ: 1 IQ: 0, IPC: 0.0004
TH3 ROB: 106 LSQ: 87 IQ: 96, IPC: 2.1942
EPOCH ENDS
EPOCH STARTS
TH0 ROB: 4 LSQ: 2 IQ: 0 IPC: 0.0008
TH1 ROB: 4 LSQ: 3 IQ: 0, IPC: 0.0011
TH2 ROB: 4 LSQ: 1 IQ: 0, IPC: 0.0004
TH3 ROB: 105 LSQ: 87 IQ: 96, IPC: 2.1942
EPOCH ENDS
EPOCH STARTS
TH0 ROB: 4 LSQ: 2 IQ: 0 IPC: 0.0008
TH1 ROB: 4 LSQ: 3 IQ: 0, IPC: 0.0011
TH2 ROB: 4 LSQ: 1 IQ: 0, IPC: 0.0004
TH3 ROB: 105 LSQ: 86 IQ: 96, IPC: 2.1942
EPOCH ENDS
EPOCH STARTS
TH0 ROB: 4 LSQ: 2 IQ: 0 IPC: 0.0008
TH1 ROB: 4 LSQ: 3 IQ: 0, IPC: 0.0011
TH2 ROB: 4 LSQ: 1 IQ: 0, IPC: 0.0004
TH3 ROB: 105 LSQ: 86 IQ: 96, IPC: 2.1942
EPOCH ENDS
EPOCH STARTS
TH0 ROB: 4 LSQ: 2 IQ: 0 IPC: 0.0008
TH1 ROB: 4 LSQ: 3 IQ: 0, IPC: 0.0011
TH2 ROB: 4 LSQ: 1 IQ: 0, IPC: 0.0004
TH3 ROB: 105 LSQ: 86 IQ: 96, IPC: 2.1942
EPOCH ENDS
EPOCH STARTS
TH0 ROB: 4 LSQ: 2 IQ: 0 IPC: 0.0008
TH1 ROB: 4 LSQ: 3 IQ: 0, IPC: 0.0011
TH2 ROB: 4 LSQ: 1 IQ: 0, IPC: 0.0004
TH3 ROB: 105 LSQ: 86 IQ: 96, IPC: 2.1942
EPOCH ENDS
EPOCH STARTS
TH0 ROB: 4 LSQ: 2 IQ: 0 IPC: 0.0008
TH1 ROB: 4 LSQ: 3 IQ: 0, IPC: 0.0011
TH2 ROB: 4 LSQ: 1 IQ: 0, IPC: 0.0004
TH3 ROB: 105 LSQ: 87 IQ: 96, IPC: 2.1942
EPOCH ENDS
EPOCH STARTS
TH0 ROB: 4 LSQ: 2 IQ: 0 IPC: 0.0008
TH1 ROB: 4 LSQ: 3 IQ: 0, IPC: 0.0011
TH2 ROB: 4 LSQ: 1 IQ: 0, IPC: 0.0004
TH3 ROB: 105 LSQ: 86 IQ: 96, IPC: 2.1942
EPOCH ENDS
EPOCH STARTS
TH0 ROB: 4 LSQ: 2 IQ: 0 IPC: 0.0008
TH1 ROB: 4 LSQ: 3 IQ: 0, IPC: 0.0011
TH2 ROB: 4 LSQ: 1 IQ: 0, IPC: 0.0004
TH3 ROB: 105 LSQ: 86 IQ: 96, IPC: 2.1942
EPOCH ENDS
EPOCH STARTS
TH0 ROB: 4 LSQ: 2 IQ: 0 IPC: 0.0008
TH1 ROB: 4 LSQ: 3 IQ: 0, IPC: 0.0011
TH2 ROB: 4 LSQ: 1 IQ: 0, IPC: 0.0004
TH3 ROB: 105 LSQ: 86 IQ: 96, IPC: 2.1942
EPOCH ENDS
EPOCH STARTS
TH0 ROB: 4 LSQ: 2 IQ: 0 IPC: 0.0008
TH1 ROB: 4 LSQ: 3 IQ: 0, IPC: 0.0011
TH2 ROB: 4 LSQ: 1 IQ: 0, IPC: 0.0004
TH3 ROB: 105 LSQ: 87 IQ: 96, IPC: 2.1942
EPOCH ENDS
EPOCH STARTS
TH0 ROB: 4 LSQ: 2 IQ: 0 IPC: 0.0008
TH1 ROB: 4 LSQ: 3 IQ: 0, IPC: 0.0011
TH2 ROB: 4 LSQ: 1 IQ: 0, IPC: 0.0004
TH3 ROB: 105 LSQ: 88 IQ: 96, IPC: 2.1942
EPOCH ENDS
EPOCH STARTS
TH0 ROB: 4 LSQ: 2 IQ: 0 IPC: 0.0008
TH1 ROB: 4 LSQ: 3 IQ: 0, IPC: 0.0011
TH2 ROB: 4 LSQ: 1 IQ: 0, IPC: 0.0004
TH3 ROB: 104 LSQ: 85 IQ: 96, IPC: 2.1942
EPOCH ENDS
EPOCH STARTS
TH0 ROB: 4 LSQ: 2 IQ: 0 IPC: 0.0008
TH1 ROB: 4 LSQ: 3 IQ: 0, IPC: 0.0011
TH2 ROB: 4 LSQ: 1 IQ: 0, IPC: 0.0004
TH3 ROB: 104 LSQ: 85 IQ: 96, IPC: 2.1942
EPOCH ENDS
EPOCH STARTS
TH0 ROB: 4 LSQ: 2 IQ: 0 IPC: 0.0008
TH1 ROB: 4 LSQ: 3 IQ: 0, IPC: 0.0011
TH2 ROB: 4 LSQ: 1 IQ: 0, IPC: 0.0004
TH3 ROB: 105 LSQ: 86 IQ: 96, IPC: 2.1943
EPOCH ENDS
EPOCH STARTS
TH0 ROB: 4 LSQ: 2 IQ: 0 IPC: 0.0008
TH1 ROB: 4 LSQ: 3 IQ: 0, IPC: 0.0010
TH2 ROB: 4 LSQ: 1 IQ: 0, IPC: 0.0004
TH3 ROB: 105 LSQ: 87 IQ: 96, IPC: 2.1943
EPOCH ENDS
EPOCH STARTS
TH0 ROB: 4 LSQ: 2 IQ: 0 IPC: 0.0008
TH1 ROB: 4 LSQ: 3 IQ: 0, IPC: 0.0010
TH2 ROB: 4 LSQ: 1 IQ: 0, IPC: 0.0004
TH3 ROB: 106 LSQ: 87 IQ: 96, IPC: 2.1943
EPOCH ENDS
EPOCH STARTS
TH0 ROB: 4 LSQ: 2 IQ: 0 IPC: 0.0008
TH1 ROB: 4 LSQ: 3 IQ: 0, IPC: 0.0010
TH2 ROB: 4 LSQ: 1 IQ: 0, IPC: 0.0004
TH3 ROB: 104 LSQ: 85 IQ: 96, IPC: 2.1943
EPOCH ENDS
EPOCH STARTS
TH0 ROB: 4 LSQ: 2 IQ: 0 IPC: 0.0008
TH1 ROB: 4 LSQ: 3 IQ: 0, IPC: 0.0010
TH2 ROB: 4 LSQ: 1 IQ: 0, IPC: 0.0004
TH3 ROB: 104 LSQ: 85 IQ: 96, IPC: 2.1943
EPOCH ENDS
EPOCH STARTS
TH0 ROB: 4 LSQ: 2 IQ: 0 IPC: 0.0008
TH1 ROB: 4 LSQ: 3 IQ: 0, IPC: 0.0010
TH2 ROB: 4 LSQ: 1 IQ: 0, IPC: 0.0004
TH3 ROB: 104 LSQ: 85 IQ: 96, IPC: 2.1943
EPOCH ENDS
EPOCH STARTS
TH0 ROB: 4 LSQ: 2 IQ: 0 IPC: 0.0008
TH1 ROB: 4 LSQ: 3 IQ: 0, IPC: 0.0010
TH2 ROB: 4 LSQ: 1 IQ: 0, IPC: 0.0003
TH3 ROB: 105 LSQ: 87 IQ: 96, IPC: 2.1943
EPOCH ENDS
EPOCH STARTS
TH0 ROB: 4 LSQ: 2 IQ: 0 IPC: 0.0008
TH1 ROB: 4 LSQ: 3 IQ: 0, IPC: 0.0010
TH2 ROB: 4 LSQ: 1 IQ: 0, IPC: 0.0003
TH3 ROB: 105 LSQ: 86 IQ: 96, IPC: 2.1943
EPOCH ENDS
EPOCH STARTS
TH0 ROB: 4 LSQ: 2 IQ: 0 IPC: 0.0008
TH1 ROB: 4 LSQ: 3 IQ: 0, IPC: 0.0010
TH2 ROB: 4 LSQ: 1 IQ: 0, IPC: 0.0003
TH3 ROB: 104 LSQ: 85 IQ: 96, IPC: 2.1943
EPOCH ENDS
EPOCH STARTS
TH0 ROB: 4 LSQ: 2 IQ: 0 IPC: 0.0008
TH1 ROB: 4 LSQ: 3 IQ: 0, IPC: 0.0010
TH2 ROB: 4 LSQ: 1 IQ: 0, IPC: 0.0003
TH3 ROB: 104 LSQ: 85 IQ: 96, IPC: 2.1943
EPOCH ENDS
EPOCH STARTS
TH0 ROB: 4 LSQ: 2 IQ: 0 IPC: 0.0008
TH1 ROB: 4 LSQ: 3 IQ: 0, IPC: 0.0010
TH2 ROB: 4 LSQ: 1 IQ: 0, IPC: 0.0003
TH3 ROB: 104 LSQ: 87 IQ: 96, IPC: 2.1943
EPOCH ENDS
EPOCH STARTS
TH0 ROB: 4 LSQ: 2 IQ: 0 IPC: 0.0008
TH1 ROB: 4 LSQ: 3 IQ: 0, IPC: 0.0010
TH2 ROB: 4 LSQ: 1 IQ: 0, IPC: 0.0003
TH3 ROB: 105 LSQ: 87 IQ: 96, IPC: 2.1943
EPOCH ENDS
EPOCH STARTS
TH0 ROB: 4 LSQ: 2 IQ: 0 IPC: 0.0008
TH1 ROB: 4 LSQ: 3 IQ: 0, IPC: 0.0010
TH2 ROB: 4 LSQ: 1 IQ: 0, IPC: 0.0003
TH3 ROB: 105 LSQ: 85 IQ: 96, IPC: 2.1943
EPOCH ENDS
EPOCH STARTS
TH0 ROB: 4 LSQ: 2 IQ: 0 IPC: 0.0008
TH1 ROB: 4 LSQ: 3 IQ: 0, IPC: 0.0010
TH2 ROB: 4 LSQ: 1 IQ: 0, IPC: 0.0003
TH3 ROB: 104 LSQ: 85 IQ: 96, IPC: 2.1943
EPOCH ENDS
EPOCH STARTS
TH0 ROB: 4 LSQ: 2 IQ: 0 IPC: 0.0008
TH1 ROB: 4 LSQ: 3 IQ: 0, IPC: 0.0010
TH2 ROB: 4 LSQ: 1 IQ: 0, IPC: 0.0003
TH3 ROB: 104 LSQ: 85 IQ: 96, IPC: 2.1943
EPOCH ENDS
EPOCH STARTS
TH0 ROB: 4 LSQ: 2 IQ: 0 IPC: 0.0008
TH1 ROB: 4 LSQ: 3 IQ: 0, IPC: 0.0010
TH2 ROB: 4 LSQ: 1 IQ: 0, IPC: 0.0003
TH3 ROB: 104 LSQ: 86 IQ: 96, IPC: 2.1943
EPOCH ENDS
EPOCH STARTS
TH0 ROB: 4 LSQ: 2 IQ: 0 IPC: 0.0008
TH1 ROB: 4 LSQ: 3 IQ: 0, IPC: 0.0010
TH2 ROB: 4 LSQ: 1 IQ: 0, IPC: 0.0003
TH3 ROB: 107 LSQ: 88 IQ: 96, IPC: 2.1943
EPOCH ENDS
EPOCH STARTS
TH0 ROB: 40 LSQ: 16 IQ: 32 IPC: 0.0021
TH1 ROB: 46 LSQ: 28 IQ: 45, IPC: 0.0029
TH2 ROB: 8 LSQ: 1 IQ: 8, IPC: 0.0007
TH3 ROB: 22 LSQ: 18 IQ: 11, IPC: 2.1912
EPOCH ENDS
EPOCH STARTS
TH0 ROB: 4 LSQ: 1 IQ: 0 IPC: 0.0024
TH1 ROB: 104 LSQ: 63 IQ: 96, IPC: 0.0094
TH2 ROB: 4 LSQ: 0 IQ: 0, IPC: 0.0008
TH3 ROB: 4 LSQ: 3 IQ: 0, IPC: 2.1850
EPOCH ENDS
EPOCH STARTS
TH0 ROB: 4 LSQ: 1 IQ: 0 IPC: 0.0024
TH1 ROB: 104 LSQ: 63 IQ: 96, IPC: 0.0170
TH2 ROB: 4 LSQ: 0 IQ: 0, IPC: 0.0008
TH3 ROB: 4 LSQ: 3 IQ: 0, IPC: 2.1784
EPOCH ENDS
EPOCH STARTS
TH0 ROB: 4 LSQ: 1 IQ: 0 IPC: 0.0024
TH1 ROB: 104 LSQ: 63 IQ: 96, IPC: 0.0246
TH2 ROB: 4 LSQ: 0 IQ: 0, IPC: 0.0008
TH3 ROB: 4 LSQ: 3 IQ: 0, IPC: 2.1717
EPOCH ENDS
EPOCH STARTS
TH0 ROB: 4 LSQ: 1 IQ: 0 IPC: 0.0024
TH1 ROB: 104 LSQ: 63 IQ: 96, IPC: 0.0321
TH2 ROB: 4 LSQ: 0 IQ: 0, IPC: 0.0008
TH3 ROB: 4 LSQ: 3 IQ: 0, IPC: 2.1651
EPOCH ENDS
EPOCH STARTS
TH0 ROB: 4 LSQ: 1 IQ: 0 IPC: 0.0024
TH1 ROB: 104 LSQ: 63 IQ: 96, IPC: 0.0396
TH2 ROB: 4 LSQ: 0 IQ: 0, IPC: 0.0008
TH3 ROB: 4 LSQ: 3 IQ: 0, IPC: 2.1585
EPOCH ENDS
EPOCH STARTS
TH0 ROB: 4 LSQ: 1 IQ: 0 IPC: 0.0024
TH1 ROB: 104 LSQ: 63 IQ: 96, IPC: 0.0470
TH2 ROB: 4 LSQ: 0 IQ: 0, IPC: 0.0008
TH3 ROB: 4 LSQ: 3 IQ: 0, IPC: 2.1520
EPOCH ENDS
EPOCH STARTS
TH0 ROB: 4 LSQ: 1 IQ: 0 IPC: 0.0024
TH1 ROB: 104 LSQ: 63 IQ: 96, IPC: 0.0544
TH2 ROB: 4 LSQ: 0 IQ: 0, IPC: 0.0008
TH3 ROB: 4 LSQ: 3 IQ: 0, IPC: 2.1455
EPOCH ENDS
EPOCH STARTS
TH0 ROB: 4 LSQ: 1 IQ: 0 IPC: 0.0024
TH1 ROB: 104 LSQ: 63 IQ: 96, IPC: 0.0618
TH2 ROB: 4 LSQ: 0 IQ: 0, IPC: 0.0008
TH3 ROB: 4 LSQ: 3 IQ: 0, IPC: 2.1391
EPOCH ENDS
EPOCH STARTS
TH0 ROB: 4 LSQ: 1 IQ: 0 IPC: 0.0023
TH1 ROB: 104 LSQ: 63 IQ: 96, IPC: 0.0691
TH2 ROB: 4 LSQ: 0 IQ: 0, IPC: 0.0008
TH3 ROB: 4 LSQ: 3 IQ: 0, IPC: 2.1327
EPOCH ENDS
EPOCH STARTS
TH0 ROB: 4 LSQ: 1 IQ: 0 IPC: 0.0023
TH1 ROB: 104 LSQ: 63 IQ: 96, IPC: 0.0763
TH2 ROB: 4 LSQ: 0 IQ: 0, IPC: 0.0008
TH3 ROB: 4 LSQ: 3 IQ: 0, IPC: 2.1263
EPOCH ENDS
EPOCH STARTS
TH0 ROB: 4 LSQ: 1 IQ: 0 IPC: 0.0023
TH1 ROB: 104 LSQ: 63 IQ: 96, IPC: 0.0835
TH2 ROB: 4 LSQ: 0 IQ: 0, IPC: 0.0008
TH3 ROB: 4 LSQ: 3 IQ: 0, IPC: 2.1200
EPOCH ENDS
EPOCH STARTS
TH0 ROB: 4 LSQ: 1 IQ: 0 IPC: 0.0023
TH1 ROB: 104 LSQ: 63 IQ: 96, IPC: 0.0907
TH2 ROB: 4 LSQ: 0 IQ: 0, IPC: 0.0008
TH3 ROB: 4 LSQ: 3 IQ: 0, IPC: 2.1137
EPOCH ENDS
EPOCH STARTS
TH0 ROB: 4 LSQ: 1 IQ: 0 IPC: 0.0023
TH1 ROB: 104 LSQ: 63 IQ: 96, IPC: 0.0978
TH2 ROB: 4 LSQ: 0 IQ: 0, IPC: 0.0008
TH3 ROB: 4 LSQ: 3 IQ: 0, IPC: 2.1075
EPOCH ENDS
EPOCH STARTS
TH0 ROB: 4 LSQ: 1 IQ: 0 IPC: 0.0023
TH1 ROB: 104 LSQ: 63 IQ: 96, IPC: 0.1049
TH2 ROB: 4 LSQ: 0 IQ: 0, IPC: 0.0008
TH3 ROB: 4 LSQ: 3 IQ: 0, IPC: 2.1012
EPOCH ENDS
EPOCH STARTS
TH0 ROB: 4 LSQ: 1 IQ: 0 IPC: 0.0023
TH1 ROB: 104 LSQ: 63 IQ: 96, IPC: 0.1120
TH2 ROB: 4 LSQ: 0 IQ: 0, IPC: 0.0008
TH3 ROB: 4 LSQ: 3 IQ: 0, IPC: 2.0951
EPOCH ENDS
EPOCH STARTS
TH0 ROB: 4 LSQ: 1 IQ: 0 IPC: 0.0023
TH1 ROB: 104 LSQ: 63 IQ: 96, IPC: 0.1190
TH2 ROB: 4 LSQ: 0 IQ: 0, IPC: 0.0008
TH3 ROB: 4 LSQ: 3 IQ: 0, IPC: 2.0889
EPOCH ENDS
EPOCH STARTS
TH0 ROB: 4 LSQ: 1 IQ: 0 IPC: 0.0023
TH1 ROB: 104 LSQ: 63 IQ: 96, IPC: 0.1259
TH2 ROB: 4 LSQ: 0 IQ: 0, IPC: 0.0008
TH3 ROB: 4 LSQ: 3 IQ: 0, IPC: 2.0828
EPOCH ENDS
EPOCH STARTS
TH0 ROB: 4 LSQ: 1 IQ: 0 IPC: 0.0023
TH1 ROB: 104 LSQ: 63 IQ: 96, IPC: 0.1329
TH2 ROB: 4 LSQ: 0 IQ: 0, IPC: 0.0008
TH3 ROB: 4 LSQ: 3 IQ: 0, IPC: 2.0767
EPOCH ENDS
EPOCH STARTS
TH0 ROB: 4 LSQ: 1 IQ: 0 IPC: 0.0023
TH1 ROB: 104 LSQ: 63 IQ: 96, IPC: 0.1397
TH2 ROB: 4 LSQ: 0 IQ: 0, IPC: 0.0008
TH3 ROB: 4 LSQ: 3 IQ: 0, IPC: 2.0707
EPOCH ENDS
EPOCH STARTS
TH0 ROB: 4 LSQ: 1 IQ: 0 IPC: 0.0023
TH1 ROB: 104 LSQ: 63 IQ: 96, IPC: 0.1466
TH2 ROB: 4 LSQ: 0 IQ: 0, IPC: 0.0008
TH3 ROB: 4 LSQ: 3 IQ: 0, IPC: 2.0647
EPOCH ENDS
EPOCH STARTS
TH0 ROB: 4 LSQ: 1 IQ: 0 IPC: 0.0023
TH1 ROB: 104 LSQ: 63 IQ: 96, IPC: 0.1534
TH2 ROB: 4 LSQ: 0 IQ: 0, IPC: 0.0008
TH3 ROB: 4 LSQ: 3 IQ: 0, IPC: 2.0587
EPOCH ENDS
EPOCH STARTS
TH0 ROB: 4 LSQ: 1 IQ: 0 IPC: 0.0023
TH1 ROB: 104 LSQ: 63 IQ: 96, IPC: 0.1601
TH2 ROB: 4 LSQ: 0 IQ: 0, IPC: 0.0007
TH3 ROB: 4 LSQ: 3 IQ: 0, IPC: 2.0528
EPOCH ENDS
EPOCH STARTS
TH0 ROB: 4 LSQ: 1 IQ: 0 IPC: 0.0023
TH1 ROB: 104 LSQ: 63 IQ: 96, IPC: 0.1669
TH2 ROB: 4 LSQ: 0 IQ: 0, IPC: 0.0007
TH3 ROB: 4 LSQ: 3 IQ: 0, IPC: 2.0469
EPOCH ENDS
EPOCH STARTS
TH0 ROB: 4 LSQ: 1 IQ: 0 IPC: 0.0022
TH1 ROB: 104 LSQ: 63 IQ: 96, IPC: 0.1736
TH2 ROB: 4 LSQ: 0 IQ: 0, IPC: 0.0007
TH3 ROB: 4 LSQ: 3 IQ: 0, IPC: 2.0410
EPOCH ENDS
EPOCH STARTS
TH0 ROB: 4 LSQ: 1 IQ: 0 IPC: 0.0022
TH1 ROB: 104 LSQ: 63 IQ: 96, IPC: 0.1802
TH2 ROB: 4 LSQ: 0 IQ: 0, IPC: 0.0007
TH3 ROB: 4 LSQ: 3 IQ: 0, IPC: 2.0352
EPOCH ENDS
EPOCH STARTS
TH0 ROB: 4 LSQ: 1 IQ: 0 IPC: 0.0022
TH1 ROB: 104 LSQ: 63 IQ: 96, IPC: 0.1868
TH2 ROB: 4 LSQ: 0 IQ: 0, IPC: 0.0007
TH3 ROB: 4 LSQ: 3 IQ: 0, IPC: 2.0294
EPOCH ENDS
EPOCH STARTS
TH0 ROB: 4 LSQ: 1 IQ: 0 IPC: 0.0022
TH1 ROB: 104 LSQ: 63 IQ: 96, IPC: 0.1934
TH2 ROB: 4 LSQ: 0 IQ: 0, IPC: 0.0007
TH3 ROB: 4 LSQ: 3 IQ: 0, IPC: 2.0236
EPOCH ENDS
EPOCH STARTS
TH0 ROB: 4 LSQ: 1 IQ: 0 IPC: 0.0022
TH1 ROB: 104 LSQ: 63 IQ: 96, IPC: 0.1999
TH2 ROB: 4 LSQ: 0 IQ: 0, IPC: 0.0007
TH3 ROB: 4 LSQ: 3 IQ: 0, IPC: 2.0179
EPOCH ENDS
EPOCH STARTS
TH0 ROB: 4 LSQ: 1 IQ: 0 IPC: 0.0022
TH1 ROB: 104 LSQ: 63 IQ: 96, IPC: 0.2064
TH2 ROB: 4 LSQ: 0 IQ: 0, IPC: 0.0007
TH3 ROB: 4 LSQ: 3 IQ: 0, IPC: 2.0122
EPOCH ENDS
EPOCH STARTS
TH0 ROB: 4 LSQ: 1 IQ: 0 IPC: 0.0022
TH1 ROB: 104 LSQ: 63 IQ: 96, IPC: 0.2129
TH2 ROB: 4 LSQ: 0 IQ: 0, IPC: 0.0007
TH3 ROB: 4 LSQ: 3 IQ: 0, IPC: 2.0065
EPOCH ENDS
EPOCH STARTS
TH0 ROB: 4 LSQ: 1 IQ: 0 IPC: 0.0022
TH1 ROB: 104 LSQ: 63 IQ: 96, IPC: 0.2193
TH2 ROB: 4 LSQ: 0 IQ: 0, IPC: 0.0007
TH3 ROB: 4 LSQ: 3 IQ: 0, IPC: 2.0009
EPOCH ENDS
EPOCH STARTS
TH0 ROB: 4 LSQ: 1 IQ: 0 IPC: 0.0022
TH1 ROB: 104 LSQ: 63 IQ: 96, IPC: 0.2257
TH2 ROB: 4 LSQ: 0 IQ: 0, IPC: 0.0007
TH3 ROB: 4 LSQ: 3 IQ: 0, IPC: 1.9953
EPOCH ENDS
EPOCH STARTS
TH0 ROB: 4 LSQ: 1 IQ: 0 IPC: 0.0022
TH1 ROB: 104 LSQ: 63 IQ: 96, IPC: 0.2320
TH2 ROB: 4 LSQ: 0 IQ: 0, IPC: 0.0007
TH3 ROB: 4 LSQ: 3 IQ: 0, IPC: 1.9897
EPOCH ENDS
EPOCH STARTS
TH0 ROB: 4 LSQ: 1 IQ: 0 IPC: 0.0022
TH1 ROB: 104 LSQ: 63 IQ: 96, IPC: 0.2384
TH2 ROB: 4 LSQ: 0 IQ: 0, IPC: 0.0007
TH3 ROB: 4 LSQ: 3 IQ: 0, IPC: 1.9842
EPOCH ENDS
EPOCH STARTS
TH0 ROB: 4 LSQ: 1 IQ: 0 IPC: 0.0022
TH1 ROB: 104 LSQ: 63 IQ: 96, IPC: 0.2446
TH2 ROB: 4 LSQ: 0 IQ: 0, IPC: 0.0007
TH3 ROB: 4 LSQ: 3 IQ: 0, IPC: 1.9787
EPOCH ENDS
EPOCH STARTS
TH0 ROB: 4 LSQ: 1 IQ: 0 IPC: 0.0022
TH1 ROB: 104 LSQ: 63 IQ: 96, IPC: 0.2509
TH2 ROB: 4 LSQ: 0 IQ: 0, IPC: 0.0007
TH3 ROB: 4 LSQ: 3 IQ: 0, IPC: 1.9732
EPOCH ENDS
EPOCH STARTS
TH0 ROB: 4 LSQ: 1 IQ: 0 IPC: 0.0022
TH1 ROB: 104 LSQ: 63 IQ: 96, IPC: 0.2571
TH2 ROB: 4 LSQ: 0 IQ: 0, IPC: 0.0007
TH3 ROB: 4 LSQ: 3 IQ: 0, IPC: 1.9677
EPOCH ENDS
EPOCH STARTS
TH0 ROB: 4 LSQ: 1 IQ: 0 IPC: 0.0022
TH1 ROB: 104 LSQ: 63 IQ: 96, IPC: 0.2633
TH2 ROB: 4 LSQ: 0 IQ: 0, IPC: 0.0007
TH3 ROB: 4 LSQ: 3 IQ: 0, IPC: 1.9623
EPOCH ENDS
EPOCH STARTS
TH0 ROB: 4 LSQ: 1 IQ: 0 IPC: 0.0022
TH1 ROB: 104 LSQ: 63 IQ: 96, IPC: 0.2694
TH2 ROB: 4 LSQ: 0 IQ: 0, IPC: 0.0007
TH3 ROB: 4 LSQ: 3 IQ: 0, IPC: 1.9569
EPOCH ENDS
EPOCH STARTS
TH0 ROB: 4 LSQ: 1 IQ: 0 IPC: 0.0021
TH1 ROB: 104 LSQ: 63 IQ: 96, IPC: 0.2755
TH2 ROB: 4 LSQ: 0 IQ: 0, IPC: 0.0007
TH3 ROB: 4 LSQ: 3 IQ: 0, IPC: 1.9516
EPOCH ENDS
EPOCH STARTS
TH0 ROB: 4 LSQ: 1 IQ: 0 IPC: 0.0021
TH1 ROB: 104 LSQ: 63 IQ: 96, IPC: 0.2816
TH2 ROB: 4 LSQ: 0 IQ: 0, IPC: 0.0007
TH3 ROB: 4 LSQ: 3 IQ: 0, IPC: 1.9462
EPOCH ENDS
EPOCH STARTS
TH0 ROB: 4 LSQ: 1 IQ: 0 IPC: 0.0021
TH1 ROB: 104 LSQ: 63 IQ: 96, IPC: 0.2877
TH2 ROB: 4 LSQ: 0 IQ: 0, IPC: 0.0007
TH3 ROB: 4 LSQ: 3 IQ: 0, IPC: 1.9409
EPOCH ENDS
EPOCH STARTS
TH0 ROB: 4 LSQ: 1 IQ: 0 IPC: 0.0021
TH1 ROB: 104 LSQ: 63 IQ: 96, IPC: 0.2937
TH2 ROB: 4 LSQ: 0 IQ: 0, IPC: 0.0007
TH3 ROB: 4 LSQ: 3 IQ: 0, IPC: 1.9357
EPOCH ENDS
EPOCH STARTS
TH0 ROB: 4 LSQ: 1 IQ: 0 IPC: 0.0021
TH1 ROB: 104 LSQ: 63 IQ: 96, IPC: 0.2996
TH2 ROB: 4 LSQ: 0 IQ: 0, IPC: 0.0007
TH3 ROB: 4 LSQ: 3 IQ: 0, IPC: 1.9304
EPOCH ENDS
EPOCH STARTS
TH0 ROB: 4 LSQ: 1 IQ: 0 IPC: 0.0021
TH1 ROB: 104 LSQ: 63 IQ: 96, IPC: 0.3056
TH2 ROB: 4 LSQ: 0 IQ: 0, IPC: 0.0007
TH3 ROB: 4 LSQ: 3 IQ: 0, IPC: 1.9252
EPOCH ENDS
EPOCH STARTS
TH0 ROB: 4 LSQ: 1 IQ: 0 IPC: 0.0021
TH1 ROB: 104 LSQ: 63 IQ: 96, IPC: 0.3115
TH2 ROB: 4 LSQ: 0 IQ: 0, IPC: 0.0007
TH3 ROB: 4 LSQ: 3 IQ: 0, IPC: 1.9200
EPOCH ENDS
EPOCH STARTS
TH0 ROB: 4 LSQ: 1 IQ: 0 IPC: 0.0021
TH1 ROB: 104 LSQ: 63 IQ: 96, IPC: 0.3174
TH2 ROB: 4 LSQ: 0 IQ: 0, IPC: 0.0007
TH3 ROB: 4 LSQ: 3 IQ: 0, IPC: 1.9148
EPOCH ENDS
EPOCH STARTS
TH0 ROB: 4 LSQ: 1 IQ: 0 IPC: 0.0021
TH1 ROB: 104 LSQ: 63 IQ: 96, IPC: 0.3232
TH2 ROB: 4 LSQ: 0 IQ: 0, IPC: 0.0007
TH3 ROB: 4 LSQ: 3 IQ: 0, IPC: 1.9097
EPOCH ENDS
EPOCH STARTS
TH0 ROB: 4 LSQ: 1 IQ: 0 IPC: 0.0021
TH1 ROB: 104 LSQ: 63 IQ: 96, IPC: 0.3291
TH2 ROB: 4 LSQ: 0 IQ: 0, IPC: 0.0007
TH3 ROB: 4 LSQ: 3 IQ: 0, IPC: 1.9046
EPOCH ENDS
EPOCH STARTS
TH0 ROB: 4 LSQ: 1 IQ: 0 IPC: 0.0021
TH1 ROB: 104 LSQ: 63 IQ: 96, IPC: 0.3349
TH2 ROB: 4 LSQ: 0 IQ: 0, IPC: 0.0007
TH3 ROB: 4 LSQ: 3 IQ: 0, IPC: 1.8995
EPOCH ENDS
EPOCH STARTS
TH0 ROB: 4 LSQ: 1 IQ: 0 IPC: 0.0021
TH1 ROB: 104 LSQ: 63 IQ: 96, IPC: 0.3406
TH2 ROB: 4 LSQ: 0 IQ: 0, IPC: 0.0007
TH3 ROB: 4 LSQ: 3 IQ: 0, IPC: 1.8945
EPOCH ENDS
EPOCH STARTS
TH0 ROB: 4 LSQ: 1 IQ: 0 IPC: 0.0021
TH1 ROB: 104 LSQ: 63 IQ: 96, IPC: 0.3463
TH2 ROB: 4 LSQ: 0 IQ: 0, IPC: 0.0007
TH3 ROB: 4 LSQ: 3 IQ: 0, IPC: 1.8894
EPOCH ENDS
EPOCH STARTS
TH0 ROB: 4 LSQ: 1 IQ: 0 IPC: 0.0021
TH1 ROB: 104 LSQ: 63 IQ: 96, IPC: 0.3520
TH2 ROB: 4 LSQ: 0 IQ: 0, IPC: 0.0007
TH3 ROB: 4 LSQ: 3 IQ: 0, IPC: 1.8844
EPOCH ENDS
EPOCH STARTS
TH0 ROB: 4 LSQ: 1 IQ: 0 IPC: 0.0021
TH1 ROB: 104 LSQ: 63 IQ: 96, IPC: 0.3577
TH2 ROB: 4 LSQ: 0 IQ: 0, IPC: 0.0007
TH3 ROB: 4 LSQ: 3 IQ: 0, IPC: 1.8795
EPOCH ENDS
EPOCH STARTS
TH0 ROB: 4 LSQ: 1 IQ: 0 IPC: 0.0021
TH1 ROB: 104 LSQ: 63 IQ: 96, IPC: 0.3633
TH2 ROB: 4 LSQ: 0 IQ: 0, IPC: 0.0007
TH3 ROB: 4 LSQ: 3 IQ: 0, IPC: 1.8745
EPOCH ENDS
EPOCH STARTS
TH0 ROB: 4 LSQ: 1 IQ: 0 IPC: 0.0021
TH1 ROB: 104 LSQ: 63 IQ: 96, IPC: 0.3690
TH2 ROB: 4 LSQ: 0 IQ: 0, IPC: 0.0007
TH3 ROB: 4 LSQ: 3 IQ: 0, IPC: 1.8696
EPOCH ENDS
EPOCH STARTS
TH0 ROB: 4 LSQ: 1 IQ: 0 IPC: 0.0021
TH1 ROB: 104 LSQ: 63 IQ: 96, IPC: 0.3745
TH2 ROB: 4 LSQ: 0 IQ: 0, IPC: 0.0007
TH3 ROB: 4 LSQ: 3 IQ: 0, IPC: 1.8647
EPOCH ENDS
EPOCH STARTS
TH0 ROB: 4 LSQ: 1 IQ: 0 IPC: 0.0020
[...]
Thread_3_cpred_bimod.retstack_pops            0 # total number of address popped off of ret-addr stack
Thread_3_cpred_bimod.used_ras.PP            0 # total number of RAS predictions used
Thread_3_cpred_bimod.ras_hits.PP            0 # total number of RAS hits
Thread_3_cpred_bimod.ras_rate.PP <error: divide by zero> # RAS prediction rate (i.e., RAS hits/used RAS)
il1.accesses              622545579 # total number of accesses
il1.hits                  622545245 # total number of hits
il1.misses                      334 # total number of misses
il1.replacements                334 # total number of replacements
il1.writebacks                    0 # total number of writebacks
il1.invalidations                 0 # total number of invalidations
il1.miss_rate                0.0000 # miss rate (i.e., misses/ref)
il1.repl_rate                0.0000 # replacement rate (i.e., repls/ref)
il1.wb_rate                  0.0000 # writeback rate (i.e., wrbks/ref)
il1.inv_rate                 0.0000 # invalidation rate (i.e., invs/ref)
dl1.accesses              256520271 # total number of accesses
dl1.hits                  255246814 # total number of hits
dl1.misses                  1273457 # total number of misses
dl1.replacements            1273457 # total number of replacements
dl1.writebacks              1273225 # total number of writebacks
dl1.invalidations                 0 # total number of invalidations
dl1.miss_rate                0.0050 # miss rate (i.e., misses/ref)
dl1.repl_rate                0.0050 # replacement rate (i.e., repls/ref)
dl1.wb_rate                  0.0050 # writeback rate (i.e., wrbks/ref)
dl1.inv_rate                 0.0000 # invalidation rate (i.e., invs/ref)
ul2.accesses                2547016 # total number of accesses
ul2.hits                    1908673 # total number of hits
ul2.misses                   638343 # total number of misses
ul2.replacements             638343 # total number of replacements
ul2.writebacks               635571 # total number of writebacks
ul2.invalidations                 0 # total number of invalidations
ul2.miss_rate                0.2506 # miss rate (i.e., misses/ref)
ul2.repl_rate                0.2506 # replacement rate (i.e., repls/ref)
ul2.wb_rate                  0.2495 # writeback rate (i.e., wrbks/ref)
ul2.inv_rate                 0.0000 # invalidation rate (i.e., invs/ref)
itlb.accesses             622545579 # total number of accesses
itlb.hits                 622545562 # total number of hits
itlb.misses                      17 # total number of misses
itlb.replacements                17 # total number of replacements
itlb.writebacks                   0 # total number of writebacks
itlb.invalidations                0 # total number of invalidations
itlb.miss_rate               0.0000 # miss rate (i.e., misses/ref)
itlb.repl_rate               0.0000 # replacement rate (i.e., repls/ref)
itlb.wb_rate                 0.0000 # writeback rate (i.e., wrbks/ref)
itlb.inv_rate                0.0000 # invalidation rate (i.e., invs/ref)
dtlb.accesses             377458180 # total number of accesses
dtlb.hits                 377448180 # total number of hits
dtlb.misses                   10000 # total number of misses
dtlb.replacements             10000 # total number of replacements
dtlb.writebacks                   0 # total number of writebacks
dtlb.invalidations                0 # total number of invalidations
dtlb.miss_rate               0.0000 # miss rate (i.e., misses/ref)
dtlb.repl_rate               0.0000 # replacement rate (i.e., repls/ref)
dtlb.wb_rate                 0.0000 # writeback rate (i.e., wrbks/ref)
dtlb.inv_rate                0.0000 # invalidation rate (i.e., invs/ref)
sim_invalid_addrs                 0 # total non-speculative bogus addresses seen (debug var)
ld_text_base           0x0120000000 # program text (code) segment base
mem->ld_text_size            294912 # program text (code) size in bytes
mem->ld_data_base      0x0140000000 # program initialized data segment base
mem->ld_data_size             93888 # program init'ed `.data' and uninit'ed `.bss' size in bytes
mem->ld_stack_base     0x011ff9b000 # program stack segment base (highest address in stack)
mem->ld_stack_size            16384 # program initial stack size
mem->ld_prog_entry     0x0120000300 # program entry point (initial PC)
mem->ld_environ_base   0x011ff97000 # program environment base address address
mem->ld_target_big_endian            0 # target executable endian-ness, non-zero if big endian
mem_0.page_count             108052 # total number of pages allocated
mem_0.page_mem              864416k # total size of memory pages allocated
mem_0.ptab_misses            112163 # total first level page table misses
mem_0.ptab_accesses        74801350 # total page table accesses
mem_0.ptab_miss_rate         0.0015 # first level page table miss rate
ld_text_base           0x0120000000 # program text (code) segment base
mem->ld_text_size           2285568 # program text (code) size in bytes
mem->ld_data_base      0x0140000000 # program initialized data segment base
mem->ld_data_size            152368 # program init'ed `.data' and uninit'ed `.bss' size in bytes
mem->ld_stack_base     0x011ff9b000 # program stack segment base (highest address in stack)
mem->ld_stack_size            16384 # program initial stack size
mem->ld_prog_entry     0x01200b9a00 # program entry point (initial PC)
mem->ld_environ_base   0x011ff97000 # program environment base address address
mem->ld_target_big_endian            0 # target executable endian-ness, non-zero if big endian
mem_0.page_count                300 # total number of pages allocated
mem_0.page_mem              864416k # total size of memory pages allocated
mem_0.ptab_misses               359 # total first level page table misses
mem_0.ptab_accesses      7135274964 # total page table accesses
mem_0.ptab_miss_rate         0.0015 # first level page table miss rate
ld_text_base           0x0120000000 # program text (code) segment base
mem->ld_text_size           1859584 # program text (code) size in bytes
mem->ld_data_base      0x0140000000 # program initialized data segment base
mem->ld_data_size            228256 # program init'ed `.data' and uninit'ed `.bss' size in bytes
mem->ld_stack_base     0x011ff9b000 # program stack segment base (highest address in stack)
mem->ld_stack_size            16384 # program initial stack size
mem->ld_prog_entry     0x0120027340 # program entry point (initial PC)
mem->ld_environ_base   0x011ff97000 # program environment base address address
mem->ld_target_big_endian            0 # target executable endian-ness, non-zero if big endian
mem_0.page_count                336 # total number of pages allocated
mem_0.page_mem              864416k # total size of memory pages allocated
mem_0.ptab_misses            124900 # total first level page table misses
mem_0.ptab_accesses        74706408 # total page table accesses
mem_0.ptab_miss_rate         0.0015 # first level page table miss rate
ld_text_base           0x0120000000 # program text (code) segment base
mem->ld_text_size            303104 # program text (code) size in bytes
mem->ld_data_base      0x0140000000 # program initialized data segment base
mem->ld_data_size           2658496 # program init'ed `.data' and uninit'ed `.bss' size in bytes
mem->ld_stack_base     0x011ff9b000 # program stack segment base (highest address in stack)
mem->ld_stack_size            16384 # program initial stack size
mem->ld_prog_entry     0x0120000300 # program entry point (initial PC)
mem->ld_environ_base   0x011ff97000 # program environment base address address
mem->ld_target_big_endian            0 # target executable endian-ness, non-zero if big endian
mem_0.page_count               7419 # total number of pages allocated
mem_0.page_mem              864416k # total size of memory pages allocated
mem_0.ptab_misses              7544 # total first level page table misses
mem_0.ptab_accesses       406563208 # total page table accesses
mem_0.ptab_miss_rate         0.0015 # first level page table miss rate
rename_power           170831330.8521 # total power usage of rename unit
bpred_power            1130781596.2667 # total power usage of bpred unit
window_power           3569047442.0555 # total power usage of instruction window
lsq_power              1992927240.4008 # total power usage of load/store queue
regfile_power          893118024.3201 # total power usage of arch. regfile
icache_power           1058450497.7872 # total power usage of icache
dcache_power           2311943843.8834 # total power usage of dcache
dcache2_power          1300033981.9295 # total power usage of dcache2
alu_power              4735293863.5147 # total power usage of alu
falu_power             3570261239.8660 # total power usage of falu
resultbus_power        2253231538.7770 # total power usage of resultbus
clock_power            7621587330.2502 # total power usage of clock
avg_rename_power             0.6833 # avg power usage of rename unit
avg_bpred_power              4.5231 # avg power usage of bpred unit
avg_window_power            14.2762 # avg power usage of instruction window
avg_lsq_power                7.9717 # avg power usage of lsq
avg_regfile_power            3.5725 # avg power usage of arch. regfile
avg_icache_power             4.2338 # avg power usage of icache
avg_dcache_power             9.2478 # avg power usage of dcache
avg_dcache2_power            5.2001 # avg power usage of dcache2
avg_alu_power               18.9412 # avg power usage of alu
avg_falu_power              14.2810 # avg power usage of falu
avg_resultbus_power          9.0129 # avg power usage of resultbus
avg_clock_power             30.4863 # avg power usage of clock
fetch_stage_power      2189232094.0540 # total power usage of fetch stage
dispatch_stage_power   170831330.8521 # total power usage of dispatch stage
issue_stage_power      16162477910.5610 # total power usage of issue stage
avg_fetch_power              8.7569 # average power of fetch unit per cycle
avg_dispatch_power           0.6833 # average power of dispatch unit per cycle
avg_issue_power             64.6499 # average power of issue unit per cycle
total_power            27037246690.0374 # total power per cycle
avg_total_power_cycle      108.1490 # average total power per cycle
avg_total_power_cycle_nofp_nod2      88.6678 # average total power per cycle
avg_total_power_insn        43.4303 # average total power per insn
avg_total_power_insn_nofp_nod2      35.6071 # average total power per insn
rename_power_cc1       170829445.5576 # total power usage of rename unit_cc1
bpred_power_cc1        549910127.1684 # total power usage of bpred unit_cc1
window_power_cc1       4077763590.4120 # total power usage of instruction window_cc1
lsq_power_cc1          1669898506.4201 # total power usage of lsq_cc1
regfile_power_cc1      857536063.4500 # total power usage of arch. regfile_cc1
icache_power_cc1       1058430556.5800 # total power usage of icache_cc1
dcache_power_cc1       1199396222.7768 # total power usage of dcache_cc1
dcache2_power_cc1      6623803.1226 # total power usage of dcache2_cc1
alu_power_cc1          1165045169.8451 # total power usage of alu_cc1
resultbus_power_cc1    2240982385.8427 # total power usage of resultbus_cc1
clock_power_cc1        5460401475.2462 # total power usage of clock_cc1
avg_rename_power_cc1         0.6833 # avg power usage of rename unit_cc1
avg_bpred_power_cc1          2.1996 # avg power usage of bpred unit_cc1
avg_window_power_cc1        16.3111 # avg power usage of instruction window_cc1
avg_lsq_power_cc1            6.6796 # avg power usage of lsq_cc1
avg_regfile_power_cc1        3.4301 # avg power usage of arch. regfile_cc1
avg_icache_power_cc1         4.2337 # avg power usage of icache_cc1
avg_dcache_power_cc1         4.7976 # avg power usage of dcache_cc1
avg_dcache2_power_cc1        0.0265 # avg power usage of dcache2_cc1
avg_alu_power_cc1            4.6602 # avg power usage of alu_cc1
avg_resultbus_power_cc1       8.9639 # avg power usage of resultbus_cc1
avg_clock_power_cc1         21.8416 # avg power usage of clock_cc1
fetch_stage_power_cc1  1608340683.7483 # total power usage of fetch stage_cc1
dispatch_stage_power_cc1 170829445.5576 # total power usage of dispatch stage_cc1
issue_stage_power_cc1  10359709678.4194 # total power usage of issue stage_cc1
avg_fetch_power_cc1          6.4334 # average power of fetch unit per cycle_cc1
avg_dispatch_power_cc1       0.6833 # average power of dispatch unit per cycle_cc1
avg_issue_power_cc1         41.4388 # average power of issue unit per cycle_cc1
total_power_cycle_cc1  18456817346.4215 # total power per cycle_cc1
avg_total_power_cycle_cc1      73.8273 # average total power per cycle_cc1
avg_total_power_insn_cc1      29.6474 # average total power per insn_cc1
rename_power_cc2       106349984.4973 # total power usage of rename unit_cc2
bpred_power_cc2        274955713.7836 # total power usage of bpred unit_cc2
window_power_cc2       4004235296.8963 # total power usage of instruction window_cc2
lsq_power_cc2          838794482.0052 # total power usage of lsq_cc2
regfile_power_cc2      143086762.8860 # total power usage of arch. regfile_cc2
icache_power_cc2       1058430556.5800 # total power usage of icache_cc2
dcache_power_cc2       1186120925.7151 # total power usage of dcache_cc2
dcache2_power_cc2      6622414.6863 # total power usage of dcache2_cc2
alu_power_cc2          724539114.5014 # total power usage of alu_cc2
resultbus_power_cc2    1685175331.2313 # total power usage of resultbus_cc2
clock_power_cc2        4216896478.0961 # total power usage of clock_cc2
avg_rename_power_cc2         0.4254 # avg power usage of rename unit_cc2
avg_bpred_power_cc2          1.0998 # avg power usage of bpred unit_cc2
avg_window_power_cc2        16.0169 # avg power usage of instruction window_cc2
avg_lsq_power_cc2            3.3552 # avg power usage of instruction lsq_cc2
avg_regfile_power_cc2        0.5723 # avg power usage of arch. regfile_cc2
avg_icache_power_cc2         4.2337 # avg power usage of icache_cc2
avg_dcache_power_cc2         4.7445 # avg power usage of dcache_cc2
avg_dcache2_power_cc2        0.0265 # avg power usage of dcache2_cc2
avg_alu_power_cc2            2.8982 # avg power usage of alu_cc2
avg_resultbus_power_cc2       6.7407 # avg power usage of resultbus_cc2
avg_clock_power_cc2         16.8676 # avg power usage of clock_cc2
fetch_stage_power_cc2  1333386270.3636 # total power usage of fetch stage_cc2
dispatch_stage_power_cc2 106349984.4973 # total power usage of dispatch stage_cc2
issue_stage_power_cc2  8445487565.0356 # total power usage of issue stage_cc2
avg_fetch_power_cc2          5.3335 # average power of fetch unit per cycle_cc2
avg_dispatch_power_cc2       0.4254 # average power of dispatch unit per cycle_cc2
avg_issue_power_cc2         33.7820 # average power of issue unit per cycle_cc2
total_power_cycle_cc2  14245207060.8785 # total power per cycle_cc2
avg_total_power_cycle_cc2      56.9808 # average total power per cycle_cc2
avg_total_power_insn_cc2      22.8823 # average total power per insn_cc2
rename_power_cc3       106350173.0268 # total power usage of rename unit_cc3
bpred_power_cc3        333042862.7334 # total power usage of bpred unit_cc3
window_power_cc3       4004235832.9671 # total power usage of instruction window_cc3
lsq_power_cc3          871097330.6574 # total power usage of lsq_cc3
regfile_power_cc3      143144302.5506 # total power usage of arch. regfile_cc3
icache_power_cc3       1058432550.7007 # total power usage of icache_cc3
dcache_power_cc3       1297964114.3101 # total power usage of dcache_cc3
dcache2_power_cc3      135963461.3239 # total power usage of dcache2_cc3
alu_power_cc3          1081563989.1745 # total power usage of alu_cc3
resultbus_power_cc3    1685176100.0339 # total power usage of resultbus_cc3
clock_power_cc3        4448741038.5653 # total power usage of clock_cc3
avg_rename_power_cc3         0.4254 # avg power usage of rename unit_cc3
avg_bpred_power_cc3          1.3322 # avg power usage of bpred unit_cc3
avg_window_power_cc3        16.0169 # avg power usage of instruction window_cc3
avg_lsq_power_cc3            3.4844 # avg power usage of instruction lsq_cc3
avg_regfile_power_cc3        0.5726 # avg power usage of arch. regfile_cc3
avg_icache_power_cc3         4.2337 # avg power usage of icache_cc3
avg_dcache_power_cc3         5.1919 # avg power usage of dcache_cc3
avg_dcache2_power_cc3        0.5439 # avg power usage of dcache2_cc3
avg_alu_power_cc3            4.3263 # avg power usage of alu_cc3
avg_resultbus_power_cc3       6.7407 # avg power usage of resultbus_cc3
avg_clock_power_cc3         17.7950 # avg power usage of clock_cc3
fetch_stage_power_cc3  1391475413.4341 # total power usage of fetch stage_cc3
dispatch_stage_power_cc3 106350173.0268 # total power usage of dispatch stage_cc3
issue_stage_power_cc3  9076000828.4668 # total power usage of issue stage_cc3
avg_fetch_power_cc3          5.5659 # average power of fetch unit per cycle_cc3
avg_dispatch_power_cc3       0.4254 # average power of dispatch unit per cycle_cc3
avg_issue_power_cc3         36.3040 # average power of issue unit per cycle_cc3
total_power_cycle_cc3  15165711756.0436 # total power per cycle_cc3
avg_total_power_cycle_cc3      60.6628 # average total power per cycle_cc3
avg_total_power_insn_cc3      24.3609 # average total power per insn_cc3
total_rename_access       622543789 # total number accesses of rename unit
total_bpred_access        121577727 # total number accesses of bpred unit
total_window_access      2742838249 # total number accesses of instruction window
total_lsq_access          377458555 # total number accesses of load/store queue
total_regfile_access      500322133 # total number accesses of arch. regfile
total_icache_access       622546330 # total number accesses of icache
total_dcache_access       256520271 # total number accesses of dcache
total_dcache2_access        2547016 # total number accesses of dcache2
total_alu_access          621902294 # total number accesses of alu
total_resultbus_access    752383990 # total number accesses of resultbus
avg_rename_access            2.4902 # avg number accesses of rename unit
avg_bpred_access             0.4863 # avg number accesses of bpred unit
avg_window_access           10.9714 # avg number accesses of instruction window
avg_lsq_access               1.5098 # avg number accesses of lsq
avg_regfile_access           2.0013 # avg number accesses of arch. regfile
avg_icache_access            2.4902 # avg number accesses of icache
avg_dcache_access            1.0261 # avg number accesses of dcache
avg_dcache2_access           0.0102 # avg number accesses of dcache2
avg_alu_access               2.4876 # avg number accesses of alu
avg_resultbus_access         3.0095 # avg number accesses of resultbus
max_rename_access                 4 # max number accesses of rename unit
max_bpred_access                  3 # max number accesses of bpred unit
max_window_access                24 # max number accesses of instruction window
max_lsq_access                    3 # max number accesses of load/store queue
max_regfile_access               12 # max number accesses of arch. regfile
max_icache_access                 4 # max number accesses of icache
max_dcache_access                 4 # max number accesses of dcache
max_dcache2_access                6 # max number accesses of dcache2
max_alu_access                    4 # max number accesses of alu
max_resultbus_access             13 # max number accesses of resultbus
max_cycle_power_cc1        124.9642 # maximum cycle power usage of cc1
max_cycle_power_cc2        101.3411 # maximum cycle power usage of cc2
max_cycle_power_cc3        102.8741 # maximum cycle power usage of cc3


******* SMT STATS *******
THROUGHPUT IPC: 2.4901

TH0 IPC: 0.0001

TH1 IPC: 2.4188

TH2 IPC: 0.0000

TH3 IPC: 0.0712

