sim-outorder: SimpleScalar/Alpha Tool Set version 3.0 of August, 2003.
Copyright (c) 1994-2003 by Todd M. Austin, Ph.D. and SimpleScalar, LLC.
All Rights Reserved. This version of SimpleScalar is licensed for academic
non-commercial use.  No portion of this work may be used by any commercial
entity, or for any commercial purpose, without the prior written permission
of SimpleScalar, LLC (info@simplescalar.com).


Processor Parameters:
Issue Width: 4
Window Size: 224
Number of Virtual Registers: 32
Number of Physical Registers: 256
Datapath Width: 64
Total Power Consumption: 110.149
Branch Predictor Power Consumption: 4.52313  (4.18%)
 branch target buffer power (W): 4.16837
 local predict power (W): 0.0879711
 global predict power (W): 0.0996078
 chooser power (W): 0.0702439
 RAS power (W): 0.0969383
Rename Logic Power Consumption: 0.683325  (0.632%)
 Instruction Decode Power (W): 0.0159915
 RAT decode_power (W): 0.113514
 RAT wordline_power (W): 0.0493708
 RAT bitline_power (W): 0.493541
 DCL Comparators (W): 0.0109075
Instruction Window Power Consumption: 14.2762  (13.2%)
 tagdrive (W): 0.827064
 tagmatch (W): 0.360565
 Selection Logic (W): 0.0885831
 decode_power (W): 1.16922
 wordline_power (W): 0.0844643
 bitline_power (W): 11.7463
Load/Store Queue Power Consumption: 7.97171  (7.37%)
 tagdrive (W): 3.75392
 tagmatch (W): 1.61238
 decode_power (W): 0.181222
 wordline_power (W): 0.0150119
 bitline_power (W): 2.40917
Arch. Register File Power Consumption: 3.57247  (3.3%)
 decode_power (W): 0.113514
 wordline_power (W): 0.0844643
 bitline_power (W): 3.37449
Result Bus Power Consumption: 9.01293  (8.33%)
Total Clock Power: 30.4863  (28.2%)
Int ALU Power: 4.66013  (4.31%)
FP ALU Power: 14.281  (13.2%)
Instruction Cache Power Consumption: 3.97049  (3.67%)
 decode_power (W): 1.67268
 wordline_power (W): 0.028656
 bitline_power (W): 1.5122
 senseamp_power (W): 0.096
 tagarray_power (W): 0.660946
Itlb_power (W): 0.263317 (0.243%)
Data Cache Power Consumption: 8.34726  (7.72%)
 decode_power (W): 1.44978
 wordline_power (W): 0.196735
 bitline_power (W): 4.58765
 senseamp_power (W): 0.768
 tagarray_power (W): 1.34509
Dtlb_power (W): 0.900515 (0.833%)
Level 2 Cache Power Consumption: 5.20014 (4.81%)
 decode_power (W): 0.41817
 wordline_power (W): 0.0430878
 bitline_power (W): 3.0244
 senseamp_power (W): 0.192
 tagarray_power (W): 1.52247
sim-main: initalizing context 0:libquantumNS.1.arg
args: 0:./libquantum.base.alpha 1:1397 2:8 
sim: loading binary...
sim: loading ./libquantum.base.alpha
warning: section `.comment' ignored...
sim-main: initalizing context 1:milcNS.1.arg
args: 0:./milc.base.alpha 
sim: loading binary...
sim: loading ./milc.base.alpha
sim-main: initalizing context 2:namdNS.1.arg
args: 0:./namd.base.alpha 1:--input 2:./namd.input 3:--iterations 4:38 5:--output 6:./namd.out 
sim: loading binary...
sim: loading ./namd.base.alpha
warning: section `.comment' ignored...
sim-main: initalizing context 3:omnetppNS.1.arg
args: 0:./omnetpp.base.alpha 1:./omnetpp.ini 
sim: loading binary...
sim: loading ./omnetpp.base.alpha
warning: section `.comment' ignored...
sim: command line: ../m-sim_v2.0/sim-outorder libquantumNS.1.arg milcNS.1.arg namdNS.1.arg omnetppNS.1.arg 

sim: simulation started @ Thu Aug 11 21:57:06 2022, options follow:

sim-outorder: This simulator implements a very detailed out-of-order issue
superscalar processor with a two-level memory system and speculative
execution support.  This simulator is a performance simulator, tracking the
latency of all pipeline operations.

# -config                     # load configuration from a file
# -dumpconfig                 # dump configuration to a file
# -h                    false # print help message    
# -v                    false # verbose operation     
# -d                    false # enable debug message  
# -i                    false # start in Dlite debugger
-seed                       1 # random number generator seed (0 for timer seed)
# -q                    false # initialize and terminate immediately
# -redir:sim           <null> # redirect simulator output to file (non-interactive only)
# -redir:prog          <null> # redirect simulated program output to file
-nice                       0 # simulator scheduling priority
-max:inst           250000000 # maximum number of inst's to execute
-fastfwd             10000000 # number of insts skipped before timing starts
# -ptrace              <null> # generate pipetrace, i.e., <fname|stdout|stderr> <range>
-fetch:speed                1 # speed of front-end of machine relative to execution core
-bpred                  bimod # branch predictor type {nottaken|taken|perfect|bimod|2lev|comb}
-bpred:bimod     2048 # bimodal predictor config (<table size>)
-bpred:2lev      1 1024 8 0 # 2-level predictor config (<l1size> <l2size> <hist_size> <xor>)
-bpred:comb      1024 # combining predictor config (<meta_table_size>)
-bpred:ras                  8 # return address stack size (0 for no return stack)
-bpred:btb       512 4 # BTB config (<num_sets> <associativity>)
# -bpred:spec_update       <null> # speculative predictors update in {ID|WB} (default non-spec)
-cpred                  bimod # cache load-latency predictor type {nottaken|taken|perfect|bimod|2lev|comb}
-cpred:bimod     2048 # cache load-latency bimodal predictor config (<table size>)
-cpred:2lev      1 1024 8 0 # cache load-latency 2-level predictor config (<l1size> <l2size> <hist_size> <xor>)
-cpred:comb      1024 # cache load-latency combining predictor config (<meta_table_size>)
-cpred:ras                  0 # return address stack size (0 for no return stack)
-cpred:btb       512 4 # cache load-latency BTB config (<num_sets> <associativity>)
-decode:width               4 # instruction decode B/W (insts/cycle)
-issue:width                4 # instruction issue B/W (insts/cycle)
-issue:inorder          false # run pipeline with in-order issue
-issue:wrongpath         true # issue instructions down wrong execution paths
-commit:width               4 # instruction commit B/W (insts/cycle)
-rob:size                 224 # reorder buffer (ROB) size
-fetch:policy |icount|round_robin|       icount # fetch policy          
-recovery:model        squash # Alpha squash recovery or perfect predition: |squash|perfect|
-iq:size                   96 # issue queue (IQ) size 
-iq:issue_exec_delay            1 # minimum cycles between issue and execution
-fetch_rename_delay            4 # number of cycles between fetch and rename stages
-rename_dispatch_delay            1 # number cycles between rename and dispatch stages
-rf:size                  256 # register file (RF) size for each the INT and FP physical register file)
-lsq:size                 128 # load/store queue (LSQ) size
-cache:dl1       dl1:256:32:4:l # l1 data cache config, i.e., {<config>|none}
-cache:dl1lat               1 # l1 data cache hit latency (in cycles)
-cache:dl2       ul2:1024:64:8:l # l2 data cache config, i.e., {<config>|none}
-cache:dl2lat               6 # l2 data cache hit latency (in cycles)
-cache:il1       il1:512:32:2:l # l1 inst cache config, i.e., {<config>|dl1|dl2|none}
-cache:il1lat               1 # l1 instruction cache hit latency (in cycles)
-cache:il2                dl2 # l2 instruction cache config, i.e., {<config>|dl2|none}
-cache:il2lat               6 # l2 instruction cache hit latency (in cycles)
-cache:flush            false # flush caches on system calls
-cache:icompress        false # convert 64-bit inst addresses to 32-bit inst equivalents
-mem:lat         100 2 # memory access latency (<first_chunk> <inter_chunk>)
-mem:width                  8 # memory access bus width (in bytes)
-tlb:itlb        itlb:16:4096:4:l # instruction TLB config, i.e., {<config>|none}
-tlb:dtlb        dtlb:32:4096:4:l # data TLB config, i.e., {<config>|none}
-tlb:lat                   30 # inst/data TLB miss latency (in cycles)
-res:ialu                   4 # total number of integer ALU's available
-res:imult                  1 # total number of integer multiplier/dividers available
-res:memport                2 # total number of memory system ports available (to CPU)
-res:fpalu                  4 # total number of floating point ALU's available
-res:fpmult                 1 # total number of floating point multiplier/dividers available
# -pcstat              <null> # profile stat(s) against text addr's (mult uses ok)
-power:print_stats         true # print power statistics collected by wattch?

  Pipetrace range arguments are formatted as follows:

    {{@|#}<start>}:{{@|#|+}<end>}

  Both ends of the range are optional, if neither are specified, the entire
  execution is traced.  Ranges that start with a `@' designate an address
  range to be traced, those that start with an `#' designate a cycle count
  range.  All other range values represent an instruction count range.  The
  second argument, if specified with a `+', indicates a value relative
  to the first argument, e.g., 1000:+100 == 1000:1100.  Program symbols may
  be used in all contexts.

    Examples:   -ptrace FOO.trc #0:#1000
                -ptrace BAR.trc @2000:
                -ptrace BLAH.trc :1500
                -ptrace UXXE.trc :
                -ptrace FOOBAR.trc @main:+278

  Branch predictor configuration examples for 2-level predictor:
    Configurations:   N, M, W, X
      N   # entries in first level (# of shift register(s))
      W   width of shift register(s)
      M   # entries in 2nd level (# of counters, or other FSM)
      X   (yes-1/no-0) xor history and address for 2nd level index
    Sample predictors:
      GAg     : 1, W, 2^W, 0
      GAp     : 1, W, M (M > 2^W), 0
      PAg     : N, W, 2^W, 0
      PAp     : N, W, M (M == 2^(N+W)), 0
      gshare  : 1, W, 2^W, 1
  Predictor `comb' combines a bimodal and a 2-level predictor.

  The cache config parameter <config> has the following format:

    <name>:<nsets>:<bsize>:<assoc>:<repl>

    <name>   - name of the cache being defined
    <nsets>  - number of sets in the cache
    <bsize>  - block size of the cache
    <assoc>  - associativity of the cache
    <repl>   - block replacement strategy, 'l'-LRU, 'f'-FIFO, 'r'-random

    Examples:   -cache:dl1 dl1:4096:32:1:l
                -dtlb dtlb:128:4096:32:r

  Cache levels can be unified by pointing a level of the instruction cache
  hierarchy at the data cache hiearchy using the "dl1" and "dl2" cache
  configuration arguments.  Most sensible combinations are supported, e.g.,

    A unified l2 cache (il2 is pointed at dl2):
      -cache:il1 il1:128:64:1:l -cache:il2 dl2
      -cache:dl1 dl1:256:32:1:l -cache:dl2 ul2:1024:64:2:l

    Or, a fully unified cache hierarchy (il1 pointed at dl1):
      -cache:il1 dl1
      -cache:dl1 ul1:256:32:1:l -cache:dl2 ul2:1024:64:2:l



sim: ** fast forwarding insts **
warning: unsupported ioctl call: ioctl(536900702, ...)
warning: invalid/unimplemented syscall 226, PC=0x1200b4a54, RA=0x120098314, winging it
warning: unsupported ioctl call: ioctl(536900702, ...)
sim: ** starting performance simulation **
EPOCH STARTS
TH0 ROB: 4 LSQ: 3 IQ: 0 IPC: 0.2767
TH1 ROB: 105 LSQ: 86 IQ: 96, IPC: 1.5462
TH2 ROB: 4 LSQ: 2 IQ: 0, IPC: 0.1351
TH3 ROB: 4 LSQ: 2 IQ: 0, IPC: 0.3048
EPOCH ENDS
EPOCH STARTS
TH0 ROB: 4 LSQ: 3 IQ: 0 IPC: 0.1383
TH1 ROB: 105 LSQ: 86 IQ: 96, IPC: 1.8711
TH2 ROB: 4 LSQ: 2 IQ: 0, IPC: 0.0676
TH3 ROB: 4 LSQ: 2 IQ: 0, IPC: 0.1524
EPOCH ENDS
EPOCH STARTS
TH0 ROB: 4 LSQ: 3 IQ: 0 IPC: 0.0922
TH1 ROB: 105 LSQ: 86 IQ: 96, IPC: 1.9795
TH2 ROB: 4 LSQ: 2 IQ: 0, IPC: 0.0450
TH3 ROB: 4 LSQ: 2 IQ: 0, IPC: 0.1016
EPOCH ENDS
EPOCH STARTS
TH0 ROB: 4 LSQ: 3 IQ: 0 IPC: 0.0692
TH1 ROB: 105 LSQ: 87 IQ: 96, IPC: 2.0336
TH2 ROB: 4 LSQ: 2 IQ: 0, IPC: 0.0338
TH3 ROB: 4 LSQ: 2 IQ: 0, IPC: 0.0762
EPOCH ENDS
EPOCH STARTS
TH0 ROB: 4 LSQ: 3 IQ: 0 IPC: 0.0553
TH1 ROB: 105 LSQ: 86 IQ: 96, IPC: 2.0661
TH2 ROB: 4 LSQ: 2 IQ: 0, IPC: 0.0270
TH3 ROB: 4 LSQ: 2 IQ: 0, IPC: 0.0610
EPOCH ENDS
EPOCH STARTS
TH0 ROB: 4 LSQ: 3 IQ: 0 IPC: 0.0461
TH1 ROB: 105 LSQ: 86 IQ: 96, IPC: 2.0878
TH2 ROB: 4 LSQ: 2 IQ: 0, IPC: 0.0225
TH3 ROB: 4 LSQ: 2 IQ: 0, IPC: 0.0508
EPOCH ENDS
EPOCH STARTS
TH0 ROB: 4 LSQ: 3 IQ: 0 IPC: 0.0395
TH1 ROB: 105 LSQ: 86 IQ: 96, IPC: 2.1032
TH2 ROB: 4 LSQ: 2 IQ: 0, IPC: 0.0193
TH3 ROB: 4 LSQ: 2 IQ: 0, IPC: 0.0435
EPOCH ENDS
EPOCH STARTS
TH0 ROB: 4 LSQ: 3 IQ: 0 IPC: 0.0346
TH1 ROB: 105 LSQ: 87 IQ: 96, IPC: 2.1148
TH2 ROB: 4 LSQ: 2 IQ: 0, IPC: 0.0169
TH3 ROB: 4 LSQ: 2 IQ: 0, IPC: 0.0381
EPOCH ENDS
EPOCH STARTS
TH0 ROB: 4 LSQ: 3 IQ: 0 IPC: 0.0307
TH1 ROB: 105 LSQ: 88 IQ: 96, IPC: 2.1239
TH2 ROB: 4 LSQ: 2 IQ: 0, IPC: 0.0150
TH3 ROB: 4 LSQ: 2 IQ: 0, IPC: 0.0339
EPOCH ENDS
EPOCH STARTS
TH0 ROB: 4 LSQ: 3 IQ: 0 IPC: 0.0277
TH1 ROB: 104 LSQ: 85 IQ: 96, IPC: 2.1311
TH2 ROB: 4 LSQ: 2 IQ: 0, IPC: 0.0135
TH3 ROB: 4 LSQ: 2 IQ: 0, IPC: 0.0305
EPOCH ENDS
EPOCH STARTS
TH0 ROB: 4 LSQ: 3 IQ: 0 IPC: 0.0252
TH1 ROB: 104 LSQ: 85 IQ: 96, IPC: 2.1370
TH2 ROB: 4 LSQ: 2 IQ: 0, IPC: 0.0123
TH3 ROB: 4 LSQ: 2 IQ: 0, IPC: 0.0277
EPOCH ENDS
EPOCH STARTS
TH0 ROB: 4 LSQ: 3 IQ: 0 IPC: 0.0231
TH1 ROB: 105 LSQ: 86 IQ: 96, IPC: 2.1419
TH2 ROB: 4 LSQ: 2 IQ: 0, IPC: 0.0113
TH3 ROB: 4 LSQ: 2 IQ: 0, IPC: 0.0254
EPOCH ENDS
EPOCH STARTS
TH0 ROB: 4 LSQ: 3 IQ: 0 IPC: 0.0213
TH1 ROB: 105 LSQ: 87 IQ: 96, IPC: 2.1461
TH2 ROB: 4 LSQ: 2 IQ: 0, IPC: 0.0104
TH3 ROB: 4 LSQ: 2 IQ: 0, IPC: 0.0234
EPOCH ENDS
EPOCH STARTS
TH0 ROB: 4 LSQ: 3 IQ: 0 IPC: 0.0198
TH1 ROB: 106 LSQ: 87 IQ: 96, IPC: 2.1497
TH2 ROB: 4 LSQ: 2 IQ: 0, IPC: 0.0097
TH3 ROB: 4 LSQ: 2 IQ: 0, IPC: 0.0218
EPOCH ENDS
EPOCH STARTS
TH0 ROB: 4 LSQ: 3 IQ: 0 IPC: 0.0184
TH1 ROB: 104 LSQ: 85 IQ: 96, IPC: 2.1528
TH2 ROB: 4 LSQ: 2 IQ: 0, IPC: 0.0090
TH3 ROB: 4 LSQ: 2 IQ: 0, IPC: 0.0203
EPOCH ENDS
EPOCH STARTS
TH0 ROB: 4 LSQ: 3 IQ: 0 IPC: 0.0173
TH1 ROB: 104 LSQ: 85 IQ: 96, IPC: 2.1555
TH2 ROB: 4 LSQ: 2 IQ: 0, IPC: 0.0084
TH3 ROB: 4 LSQ: 2 IQ: 0, IPC: 0.0191
EPOCH ENDS
EPOCH STARTS
TH0 ROB: 4 LSQ: 3 IQ: 0 IPC: 0.0163
TH1 ROB: 104 LSQ: 85 IQ: 96, IPC: 2.1579
TH2 ROB: 4 LSQ: 2 IQ: 0, IPC: 0.0079
TH3 ROB: 4 LSQ: 2 IQ: 0, IPC: 0.0179
EPOCH ENDS
EPOCH STARTS
TH0 ROB: 4 LSQ: 3 IQ: 0 IPC: 0.0154
TH1 ROB: 105 LSQ: 87 IQ: 96, IPC: 2.1600
TH2 ROB: 4 LSQ: 2 IQ: 0, IPC: 0.0075
TH3 ROB: 4 LSQ: 2 IQ: 0, IPC: 0.0169
EPOCH ENDS
EPOCH STARTS
TH0 ROB: 4 LSQ: 3 IQ: 0 IPC: 0.0146
TH1 ROB: 105 LSQ: 86 IQ: 96, IPC: 2.1619
TH2 ROB: 4 LSQ: 2 IQ: 0, IPC: 0.0071
TH3 ROB: 4 LSQ: 2 IQ: 0, IPC: 0.0160
EPOCH ENDS
EPOCH STARTS
TH0 ROB: 4 LSQ: 3 IQ: 0 IPC: 0.0138
TH1 ROB: 104 LSQ: 85 IQ: 96, IPC: 2.1636
TH2 ROB: 4 LSQ: 2 IQ: 0, IPC: 0.0068
TH3 ROB: 4 LSQ: 2 IQ: 0, IPC: 0.0152
EPOCH ENDS
EPOCH STARTS
TH0 ROB: 4 LSQ: 3 IQ: 0 IPC: 0.0132
TH1 ROB: 104 LSQ: 85 IQ: 96, IPC: 2.1651
TH2 ROB: 4 LSQ: 2 IQ: 0, IPC: 0.0064
TH3 ROB: 4 LSQ: 2 IQ: 0, IPC: 0.0145
EPOCH ENDS
EPOCH STARTS
TH0 ROB: 4 LSQ: 3 IQ: 0 IPC: 0.0126
TH1 ROB: 104 LSQ: 87 IQ: 96, IPC: 2.1665
TH2 ROB: 4 LSQ: 2 IQ: 0, IPC: 0.0061
TH3 ROB: 4 LSQ: 2 IQ: 0, IPC: 0.0139
EPOCH ENDS
EPOCH STARTS
TH0 ROB: 4 LSQ: 3 IQ: 0 IPC: 0.0120
TH1 ROB: 105 LSQ: 87 IQ: 96, IPC: 2.1678
TH2 ROB: 4 LSQ: 2 IQ: 0, IPC: 0.0059
TH3 ROB: 4 LSQ: 2 IQ: 0, IPC: 0.0133
EPOCH ENDS
EPOCH STARTS
TH0 ROB: 4 LSQ: 3 IQ: 0 IPC: 0.0115
TH1 ROB: 105 LSQ: 85 IQ: 96, IPC: 2.1690
TH2 ROB: 4 LSQ: 2 IQ: 0, IPC: 0.0056
TH3 ROB: 4 LSQ: 2 IQ: 0, IPC: 0.0127
EPOCH ENDS
EPOCH STARTS
TH0 ROB: 4 LSQ: 3 IQ: 0 IPC: 0.0111
TH1 ROB: 104 LSQ: 85 IQ: 96, IPC: 2.1701
TH2 ROB: 4 LSQ: 2 IQ: 0, IPC: 0.0054
TH3 ROB: 4 LSQ: 2 IQ: 0, IPC: 0.0122
EPOCH ENDS
EPOCH STARTS
TH0 ROB: 4 LSQ: 3 IQ: 0 IPC: 0.0106
TH1 ROB: 104 LSQ: 85 IQ: 96, IPC: 2.1711
TH2 ROB: 4 LSQ: 2 IQ: 0, IPC: 0.0052
TH3 ROB: 4 LSQ: 2 IQ: 0, IPC: 0.0117
EPOCH ENDS
EPOCH STARTS
TH0 ROB: 4 LSQ: 3 IQ: 0 IPC: 0.0102
TH1 ROB: 104 LSQ: 86 IQ: 96, IPC: 2.1720
TH2 ROB: 4 LSQ: 2 IQ: 0, IPC: 0.0050
TH3 ROB: 4 LSQ: 2 IQ: 0, IPC: 0.0113
EPOCH ENDS
EPOCH STARTS
TH0 ROB: 4 LSQ: 3 IQ: 0 IPC: 0.0099
TH1 ROB: 107 LSQ: 88 IQ: 96, IPC: 2.1729
TH2 ROB: 4 LSQ: 2 IQ: 0, IPC: 0.0048
TH3 ROB: 4 LSQ: 2 IQ: 0, IPC: 0.0109
EPOCH ENDS
EPOCH STARTS
TH0 ROB: 4 LSQ: 3 IQ: 0 IPC: 0.0095
TH1 ROB: 105 LSQ: 86 IQ: 96, IPC: 2.1737
TH2 ROB: 4 LSQ: 2 IQ: 0, IPC: 0.0047
TH3 ROB: 4 LSQ: 2 IQ: 0, IPC: 0.0105
EPOCH ENDS
EPOCH STARTS
TH0 ROB: 4 LSQ: 3 IQ: 0 IPC: 0.0092
TH1 ROB: 105 LSQ: 85 IQ: 96, IPC: 2.1744
TH2 ROB: 4 LSQ: 2 IQ: 0, IPC: 0.0045
TH3 ROB: 4 LSQ: 2 IQ: 0, IPC: 0.0102
EPOCH ENDS
EPOCH STARTS
TH0 ROB: 4 LSQ: 3 IQ: 0 IPC: 0.0089
TH1 ROB: 104 LSQ: 85 IQ: 96, IPC: 2.1751
TH2 ROB: 4 LSQ: 2 IQ: 0, IPC: 0.0044
TH3 ROB: 4 LSQ: 2 IQ: 0, IPC: 0.0098
EPOCH ENDS
EPOCH STARTS
TH0 ROB: 4 LSQ: 3 IQ: 0 IPC: 0.0086
TH1 ROB: 105 LSQ: 87 IQ: 96, IPC: 2.1758
TH2 ROB: 4 LSQ: 2 IQ: 0, IPC: 0.0042
TH3 ROB: 4 LSQ: 2 IQ: 0, IPC: 0.0095
EPOCH ENDS
EPOCH STARTS
TH0 ROB: 4 LSQ: 3 IQ: 0 IPC: 0.0084
TH1 ROB: 105 LSQ: 86 IQ: 96, IPC: 2.1764
TH2 ROB: 4 LSQ: 2 IQ: 0, IPC: 0.0041
TH3 ROB: 4 LSQ: 2 IQ: 0, IPC: 0.0092
EPOCH ENDS
EPOCH STARTS
TH0 ROB: 4 LSQ: 3 IQ: 0 IPC: 0.0081
TH1 ROB: 104 LSQ: 85 IQ: 96, IPC: 2.1770
TH2 ROB: 4 LSQ: 2 IQ: 0, IPC: 0.0040
TH3 ROB: 4 LSQ: 2 IQ: 0, IPC: 0.0090
EPOCH ENDS
EPOCH STARTS
TH0 ROB: 4 LSQ: 3 IQ: 0 IPC: 0.0079
TH1 ROB: 105 LSQ: 86 IQ: 96, IPC: 2.1775
TH2 ROB: 4 LSQ: 2 IQ: 0, IPC: 0.0039
TH3 ROB: 4 LSQ: 2 IQ: 0, IPC: 0.0087
EPOCH ENDS
EPOCH STARTS
TH0 ROB: 4 LSQ: 3 IQ: 0 IPC: 0.0077
TH1 ROB: 105 LSQ: 87 IQ: 96, IPC: 2.1780
TH2 ROB: 4 LSQ: 2 IQ: 0, IPC: 0.0038
TH3 ROB: 4 LSQ: 2 IQ: 0, IPC: 0.0085
EPOCH ENDS
EPOCH STARTS
TH0 ROB: 4 LSQ: 3 IQ: 0 IPC: 0.0075
TH1 ROB: 105 LSQ: 87 IQ: 96, IPC: 2.1785
TH2 ROB: 4 LSQ: 2 IQ: 0, IPC: 0.0037
TH3 ROB: 4 LSQ: 2 IQ: 0, IPC: 0.0082
EPOCH ENDS
EPOCH STARTS
TH0 ROB: 4 LSQ: 3 IQ: 0 IPC: 0.0073
TH1 ROB: 106 LSQ: 87 IQ: 96, IPC: 2.1790
TH2 ROB: 4 LSQ: 2 IQ: 0, IPC: 0.0036
TH3 ROB: 4 LSQ: 2 IQ: 0, IPC: 0.0080
EPOCH ENDS
EPOCH STARTS
TH0 ROB: 4 LSQ: 3 IQ: 0 IPC: 0.0071
TH1 ROB: 104 LSQ: 85 IQ: 96, IPC: 2.1794
TH2 ROB: 4 LSQ: 2 IQ: 0, IPC: 0.0035
TH3 ROB: 4 LSQ: 2 IQ: 0, IPC: 0.0078
EPOCH ENDS
EPOCH STARTS
TH0 ROB: 4 LSQ: 3 IQ: 0 IPC: 0.0069
TH1 ROB: 104 LSQ: 85 IQ: 96, IPC: 2.1798
TH2 ROB: 4 LSQ: 2 IQ: 0, IPC: 0.0034
TH3 ROB: 4 LSQ: 2 IQ: 0, IPC: 0.0076
EPOCH ENDS
EPOCH STARTS
TH0 ROB: 4 LSQ: 3 IQ: 0 IPC: 0.0067
TH1 ROB: 105 LSQ: 87 IQ: 96, IPC: 2.1802
TH2 ROB: 4 LSQ: 2 IQ: 0, IPC: 0.0033
TH3 ROB: 4 LSQ: 2 IQ: 0, IPC: 0.0074
EPOCH ENDS
EPOCH STARTS
TH0 ROB: 4 LSQ: 3 IQ: 0 IPC: 0.0066
TH1 ROB: 106 LSQ: 87 IQ: 96, IPC: 2.1806
TH2 ROB: 4 LSQ: 2 IQ: 0, IPC: 0.0032
TH3 ROB: 4 LSQ: 2 IQ: 0, IPC: 0.0073
EPOCH ENDS
EPOCH STARTS
TH0 ROB: 4 LSQ: 3 IQ: 0 IPC: 0.0064
TH1 ROB: 106 LSQ: 87 IQ: 96, IPC: 2.1810
TH2 ROB: 4 LSQ: 2 IQ: 0, IPC: 0.0031
TH3 ROB: 4 LSQ: 2 IQ: 0, IPC: 0.0071
EPOCH ENDS
EPOCH STARTS
TH0 ROB: 4 LSQ: 3 IQ: 0 IPC: 0.0063
TH1 ROB: 106 LSQ: 87 IQ: 96, IPC: 2.1813
TH2 ROB: 4 LSQ: 2 IQ: 0, IPC: 0.0031
TH3 ROB: 4 LSQ: 2 IQ: 0, IPC: 0.0069
EPOCH ENDS
EPOCH STARTS
TH0 ROB: 4 LSQ: 3 IQ: 0 IPC: 0.0061
TH1 ROB: 104 LSQ: 86 IQ: 96, IPC: 2.1816
TH2 ROB: 4 LSQ: 2 IQ: 0, IPC: 0.0030
TH3 ROB: 4 LSQ: 2 IQ: 0, IPC: 0.0068
EPOCH ENDS
EPOCH STARTS
TH0 ROB: 4 LSQ: 3 IQ: 0 IPC: 0.0060
TH1 ROB: 104 LSQ: 87 IQ: 96, IPC: 2.1820
TH2 ROB: 4 LSQ: 2 IQ: 0, IPC: 0.0029
TH3 ROB: 4 LSQ: 2 IQ: 0, IPC: 0.0066
EPOCH ENDS
EPOCH STARTS
TH0 ROB: 4 LSQ: 3 IQ: 0 IPC: 0.0059
TH1 ROB: 105 LSQ: 86 IQ: 96, IPC: 2.1823
TH2 ROB: 4 LSQ: 2 IQ: 0, IPC: 0.0029
TH3 ROB: 4 LSQ: 2 IQ: 0, IPC: 0.0065
EPOCH ENDS
EPOCH STARTS
TH0 ROB: 4 LSQ: 3 IQ: 0 IPC: 0.0058
TH1 ROB: 105 LSQ: 86 IQ: 96, IPC: 2.1825
TH2 ROB: 4 LSQ: 2 IQ: 0, IPC: 0.0028
TH3 ROB: 4 LSQ: 2 IQ: 0, IPC: 0.0063
EPOCH ENDS
EPOCH STARTS
TH0 ROB: 4 LSQ: 3 IQ: 0 IPC: 0.0056
TH1 ROB: 106 LSQ: 87 IQ: 96, IPC: 2.1828
TH2 ROB: 4 LSQ: 2 IQ: 0, IPC: 0.0028
TH3 ROB: 4 LSQ: 2 IQ: 0, IPC: 0.0062
EPOCH ENDS
EPOCH STARTS
TH0 ROB: 4 LSQ: 3 IQ: 0 IPC: 0.0055
TH1 ROB: 105 LSQ: 87 IQ: 96, IPC: 2.1831
TH2 ROB: 4 LSQ: 2 IQ: 0, IPC: 0.0027
TH3 ROB: 4 LSQ: 2 IQ: 0, IPC: 0.0061
EPOCH ENDS
EPOCH STARTS
TH0 ROB: 4 LSQ: 3 IQ: 0 IPC: 0.0054
TH1 ROB: 105 LSQ: 86 IQ: 96, IPC: 2.1833
TH2 ROB: 4 LSQ: 2 IQ: 0, IPC: 0.0026
TH3 ROB: 4 LSQ: 2 IQ: 0, IPC: 0.0060
EPOCH ENDS
EPOCH STARTS
TH0 ROB: 4 LSQ: 3 IQ: 0 IPC: 0.0053
TH1 ROB: 105 LSQ: 86 IQ: 96, IPC: 2.1836
TH2 ROB: 4 LSQ: 2 IQ: 0, IPC: 0.0026
TH3 ROB: 4 LSQ: 2 IQ: 0, IPC: 0.0059
EPOCH ENDS
EPOCH STARTS
TH0 ROB: 4 LSQ: 3 IQ: 0 IPC: 0.0052
TH1 ROB: 105 LSQ: 86 IQ: 96, IPC: 2.1838
TH2 ROB: 4 LSQ: 2 IQ: 0, IPC: 0.0025
TH3 ROB: 4 LSQ: 2 IQ: 0, IPC: 0.0058
EPOCH ENDS
EPOCH STARTS
TH0 ROB: 4 LSQ: 3 IQ: 0 IPC: 0.0051
TH1 ROB: 105 LSQ: 86 IQ: 96, IPC: 2.1840
TH2 ROB: 4 LSQ: 2 IQ: 0, IPC: 0.0025
TH3 ROB: 4 LSQ: 2 IQ: 0, IPC: 0.0056
EPOCH ENDS
EPOCH STARTS
TH0 ROB: 4 LSQ: 3 IQ: 0 IPC: 0.0050
TH1 ROB: 105 LSQ: 87 IQ: 96, IPC: 2.1843
TH2 ROB: 4 LSQ: 2 IQ: 0, IPC: 0.0025
TH3 ROB: 4 LSQ: 2 IQ: 0, IPC: 0.0055
EPOCH ENDS
EPOCH STARTS
TH0 ROB: 4 LSQ: 3 IQ: 0 IPC: 0.0049
TH1 ROB: 105 LSQ: 86 IQ: 96, IPC: 2.1845
TH2 ROB: 4 LSQ: 2 IQ: 0, IPC: 0.0024
TH3 ROB: 4 LSQ: 2 IQ: 0, IPC: 0.0054
EPOCH ENDS
EPOCH STARTS
TH0 ROB: 4 LSQ: 3 IQ: 0 IPC: 0.0049
TH1 ROB: 105 LSQ: 86 IQ: 96, IPC: 2.1847
TH2 ROB: 4 LSQ: 2 IQ: 0, IPC: 0.0024
TH3 ROB: 4 LSQ: 2 IQ: 0, IPC: 0.0053
EPOCH ENDS
EPOCH STARTS
TH0 ROB: 4 LSQ: 3 IQ: 0 IPC: 0.0048
TH1 ROB: 105 LSQ: 86 IQ: 96, IPC: 2.1849
TH2 ROB: 4 LSQ: 2 IQ: 0, IPC: 0.0023
TH3 ROB: 4 LSQ: 2 IQ: 0, IPC: 0.0053
EPOCH ENDS
EPOCH STARTS
TH0 ROB: 4 LSQ: 3 IQ: 0 IPC: 0.0047
TH1 ROB: 105 LSQ: 87 IQ: 96, IPC: 2.1851
TH2 ROB: 4 LSQ: 2 IQ: 0, IPC: 0.0023
TH3 ROB: 4 LSQ: 2 IQ: 0, IPC: 0.0052
EPOCH ENDS
EPOCH STARTS
TH0 ROB: 4 LSQ: 3 IQ: 0 IPC: 0.0046
TH1 ROB: 105 LSQ: 88 IQ: 96, IPC: 2.1852
TH2 ROB: 4 LSQ: 2 IQ: 0, IPC: 0.0023
TH3 ROB: 4 LSQ: 2 IQ: 0, IPC: 0.0051
EPOCH ENDS
EPOCH STARTS
TH0 ROB: 4 LSQ: 3 IQ: 0 IPC: 0.0045
TH1 ROB: 104 LSQ: 85 IQ: 96, IPC: 2.1854
TH2 ROB: 4 LSQ: 2 IQ: 0, IPC: 0.0022
TH3 ROB: 4 LSQ: 2 IQ: 0, IPC: 0.0050
EPOCH ENDS
EPOCH STARTS
TH0 ROB: 4 LSQ: 3 IQ: 0 IPC: 0.0045
TH1 ROB: 104 LSQ: 85 IQ: 96, IPC: 2.1856
TH2 ROB: 4 LSQ: 2 IQ: 0, IPC: 0.0022
TH3 ROB: 4 LSQ: 2 IQ: 0, IPC: 0.0049
EPOCH ENDS
EPOCH STARTS
TH0 ROB: 4 LSQ: 3 IQ: 0 IPC: 0.0044
TH1 ROB: 105 LSQ: 86 IQ: 96, IPC: 2.1858
TH2 ROB: 4 LSQ: 2 IQ: 0, IPC: 0.0021
TH3 ROB: 4 LSQ: 2 IQ: 0, IPC: 0.0048
EPOCH ENDS
EPOCH STARTS
TH0 ROB: 4 LSQ: 3 IQ: 0 IPC: 0.0043
TH1 ROB: 105 LSQ: 87 IQ: 96, IPC: 2.1859
TH2 ROB: 4 LSQ: 2 IQ: 0, IPC: 0.0021
TH3 ROB: 4 LSQ: 2 IQ: 0, IPC: 0.0048
EPOCH ENDS
EPOCH STARTS
TH0 ROB: 4 LSQ: 3 IQ: 0 IPC: 0.0043
TH1 ROB: 106 LSQ: 87 IQ: 96, IPC: 2.1861
TH2 ROB: 4 LSQ: 2 IQ: 0, IPC: 0.0021
TH3 ROB: 4 LSQ: 2 IQ: 0, IPC: 0.0047
EPOCH ENDS
EPOCH STARTS
TH0 ROB: 4 LSQ: 3 IQ: 0 IPC: 0.0042
TH1 ROB: 104 LSQ: 85 IQ: 96, IPC: 2.1862
TH2 ROB: 4 LSQ: 2 IQ: 0, IPC: 0.0020
TH3 ROB: 4 LSQ: 2 IQ: 0, IPC: 0.0046
EPOCH ENDS
EPOCH STARTS
TH0 ROB: 4 LSQ: 3 IQ: 0 IPC: 0.0041
TH1 ROB: 104 LSQ: 85 IQ: 96, IPC: 2.1864
TH2 ROB: 4 LSQ: 2 IQ: 0, IPC: 0.0020
TH3 ROB: 4 LSQ: 2 IQ: 0, IPC: 0.0045
EPOCH ENDS
EPOCH STARTS
TH0 ROB: 4 LSQ: 3 IQ: 0 IPC: 0.0041
TH1 ROB: 104 LSQ: 85 IQ: 96, IPC: 2.1865
TH2 ROB: 4 LSQ: 2 IQ: 0, IPC: 0.0020
TH3 ROB: 4 LSQ: 2 IQ: 0, IPC: 0.0045
EPOCH ENDS
EPOCH STARTS
TH0 ROB: 4 LSQ: 3 IQ: 0 IPC: 0.0040
TH1 ROB: 105 LSQ: 87 IQ: 96, IPC: 2.1867
TH2 ROB: 4 LSQ: 2 IQ: 0, IPC: 0.0020
TH3 ROB: 4 LSQ: 2 IQ: 0, IPC: 0.0044
EPOCH ENDS
EPOCH STARTS
TH0 ROB: 4 LSQ: 3 IQ: 0 IPC: 0.0040
TH1 ROB: 105 LSQ: 86 IQ: 96, IPC: 2.1868
TH2 ROB: 4 LSQ: 2 IQ: 0, IPC: 0.0019
TH3 ROB: 4 LSQ: 2 IQ: 0, IPC: 0.0044
EPOCH ENDS
EPOCH STARTS
TH0 ROB: 4 LSQ: 3 IQ: 0 IPC: 0.0039
TH1 ROB: 104 LSQ: 85 IQ: 96, IPC: 2.1869
TH2 ROB: 4 LSQ: 2 IQ: 0, IPC: 0.0019
TH3 ROB: 4 LSQ: 2 IQ: 0, IPC: 0.0043
EPOCH ENDS
EPOCH STARTS
TH0 ROB: 4 LSQ: 3 IQ: 0 IPC: 0.0038
TH1 ROB: 104 LSQ: 85 IQ: 96, IPC: 2.1871
TH2 ROB: 4 LSQ: 2 IQ: 0, IPC: 0.0019
TH3 ROB: 4 LSQ: 2 IQ: 0, IPC: 0.0042
EPOCH ENDS
EPOCH STARTS
TH0 ROB: 4 LSQ: 3 IQ: 0 IPC: 0.0038
TH1 ROB: 104 LSQ: 87 IQ: 96, IPC: 2.1872
TH2 ROB: 4 LSQ: 2 IQ: 0, IPC: 0.0019
TH3 ROB: 4 LSQ: 2 IQ: 0, IPC: 0.0042
EPOCH ENDS
EPOCH STARTS
TH0 ROB: 4 LSQ: 3 IQ: 0 IPC: 0.0037
TH1 ROB: 105 LSQ: 87 IQ: 96, IPC: 2.1873
TH2 ROB: 4 LSQ: 2 IQ: 0, IPC: 0.0018
TH3 ROB: 4 LSQ: 2 IQ: 0, IPC: 0.0041
EPOCH ENDS
EPOCH STARTS
TH0 ROB: 4 LSQ: 3 IQ: 0 IPC: 0.0037
TH1 ROB: 105 LSQ: 85 IQ: 96, IPC: 2.1874
TH2 ROB: 4 LSQ: 2 IQ: 0, IPC: 0.0018
TH3 ROB: 4 LSQ: 2 IQ: 0, IPC: 0.0041
EPOCH ENDS
EPOCH STARTS
TH0 ROB: 4 LSQ: 3 IQ: 0 IPC: 0.0036
TH1 ROB: 104 LSQ: 85 IQ: 96, IPC: 2.1875
TH2 ROB: 4 LSQ: 2 IQ: 0, IPC: 0.0018
TH3 ROB: 4 LSQ: 2 IQ: 0, IPC: 0.0040
EPOCH ENDS
EPOCH STARTS
TH0 ROB: 4 LSQ: 3 IQ: 0 IPC: 0.0036
TH1 ROB: 104 LSQ: 85 IQ: 96, IPC: 2.1876
TH2 ROB: 4 LSQ: 2 IQ: 0, IPC: 0.0018
TH3 ROB: 4 LSQ: 2 IQ: 0, IPC: 0.0040
EPOCH ENDS
EPOCH STARTS
TH0 ROB: 4 LSQ: 3 IQ: 0 IPC: 0.0035
TH1 ROB: 104 LSQ: 86 IQ: 96, IPC: 2.1877
TH2 ROB: 4 LSQ: 2 IQ: 0, IPC: 0.0017
TH3 ROB: 4 LSQ: 2 IQ: 0, IPC: 0.0039
EPOCH ENDS
EPOCH STARTS
TH0 ROB: 4 LSQ: 3 IQ: 0 IPC: 0.0035
TH1 ROB: 107 LSQ: 88 IQ: 96, IPC: 2.1879
TH2 ROB: 4 LSQ: 2 IQ: 0, IPC: 0.0017
TH3 ROB: 4 LSQ: 2 IQ: 0, IPC: 0.0039
EPOCH ENDS
EPOCH STARTS
TH0 ROB: 4 LSQ: 3 IQ: 0 IPC: 0.0035
TH1 ROB: 105 LSQ: 86 IQ: 96, IPC: 2.1880
TH2 ROB: 4 LSQ: 2 IQ: 0, IPC: 0.0017
TH3 ROB: 4 LSQ: 2 IQ: 0, IPC: 0.0038
EPOCH ENDS
EPOCH STARTS
TH0 ROB: 4 LSQ: 3 IQ: 0 IPC: 0.0034
TH1 ROB: 105 LSQ: 85 IQ: 96, IPC: 2.1881
TH2 ROB: 4 LSQ: 2 IQ: 0, IPC: 0.0017
TH3 ROB: 4 LSQ: 2 IQ: 0, IPC: 0.0038
EPOCH ENDS
EPOCH STARTS
TH0 ROB: 4 LSQ: 3 IQ: 0 IPC: 0.0034
TH1 ROB: 104 LSQ: 85 IQ: 96, IPC: 2.1882
TH2 ROB: 4 LSQ: 2 IQ: 0, IPC: 0.0016
TH3 ROB: 4 LSQ: 2 IQ: 0, IPC: 0.0037
EPOCH ENDS
EPOCH STARTS
TH0 ROB: 4 LSQ: 3 IQ: 0 IPC: 0.0033
TH1 ROB: 105 LSQ: 87 IQ: 96, IPC: 2.1882
TH2 ROB: 4 LSQ: 2 IQ: 0, IPC: 0.0016
TH3 ROB: 4 LSQ: 2 IQ: 0, IPC: 0.0037
EPOCH ENDS
EPOCH STARTS
TH0 ROB: 4 LSQ: 3 IQ: 0 IPC: 0.0033
TH1 ROB: 105 LSQ: 86 IQ: 96, IPC: 2.1883
TH2 ROB: 4 LSQ: 2 IQ: 0, IPC: 0.0016
TH3 ROB: 4 LSQ: 2 IQ: 0, IPC: 0.0036
EPOCH ENDS
EPOCH STARTS
TH0 ROB: 4 LSQ: 3 IQ: 0 IPC: 0.0033
TH1 ROB: 104 LSQ: 85 IQ: 96, IPC: 2.1884
TH2 ROB: 4 LSQ: 2 IQ: 0, IPC: 0.0016
TH3 ROB: 4 LSQ: 2 IQ: 0, IPC: 0.0036
EPOCH ENDS
EPOCH STARTS
TH0 ROB: 4 LSQ: 3 IQ: 0 IPC: 0.0032
TH1 ROB: 105 LSQ: 86 IQ: 96, IPC: 2.1885
TH2 ROB: 4 LSQ: 2 IQ: 0, IPC: 0.0016
TH3 ROB: 4 LSQ: 2 IQ: 0, IPC: 0.0035
EPOCH ENDS
EPOCH STARTS
TH0 ROB: 4 LSQ: 3 IQ: 0 IPC: 0.0032
TH1 ROB: 105 LSQ: 87 IQ: 96, IPC: 2.1886
TH2 ROB: 4 LSQ: 2 IQ: 0, IPC: 0.0016
TH3 ROB: 4 LSQ: 2 IQ: 0, IPC: 0.0035
EPOCH ENDS
EPOCH STARTS
TH0 ROB: 4 LSQ: 3 IQ: 0 IPC: 0.0031
TH1 ROB: 105 LSQ: 87 IQ: 96, IPC: 2.1887
TH2 ROB: 4 LSQ: 2 IQ: 0, IPC: 0.0015
TH3 ROB: 4 LSQ: 2 IQ: 0, IPC: 0.0035
EPOCH ENDS
EPOCH STARTS
TH0 ROB: 4 LSQ: 3 IQ: 0 IPC: 0.0031
TH1 ROB: 106 LSQ: 87 IQ: 96, IPC: 2.1888
TH2 ROB: 4 LSQ: 2 IQ: 0, IPC: 0.0015
TH3 ROB: 4 LSQ: 2 IQ: 0, IPC: 0.0034
EPOCH ENDS
EPOCH STARTS
TH0 ROB: 4 LSQ: 3 IQ: 0 IPC: 0.0031
TH1 ROB: 104 LSQ: 85 IQ: 96, IPC: 2.1889
TH2 ROB: 4 LSQ: 2 IQ: 0, IPC: 0.0015
TH3 ROB: 4 LSQ: 2 IQ: 0, IPC: 0.0034
EPOCH ENDS
EPOCH STARTS
TH0 ROB: 4 LSQ: 3 IQ: 0 IPC: 0.0030
TH1 ROB: 104 LSQ: 85 IQ: 96, IPC: 2.1889
TH2 ROB: 4 LSQ: 2 IQ: 0, IPC: 0.0015
TH3 ROB: 4 LSQ: 2 IQ: 0, IPC: 0.0033
EPOCH ENDS
EPOCH STARTS
TH0 ROB: 4 LSQ: 3 IQ: 0 IPC: 0.0030
TH1 ROB: 105 LSQ: 87 IQ: 96, IPC: 2.1890
TH2 ROB: 4 LSQ: 2 IQ: 0, IPC: 0.0015
TH3 ROB: 4 LSQ: 2 IQ: 0, IPC: 0.0033
EPOCH ENDS
EPOCH STARTS
TH0 ROB: 4 LSQ: 3 IQ: 0 IPC: 0.0030
TH1 ROB: 106 LSQ: 87 IQ: 96, IPC: 2.1891
TH2 ROB: 4 LSQ: 2 IQ: 0, IPC: 0.0015
TH3 ROB: 4 LSQ: 2 IQ: 0, IPC: 0.0033
EPOCH ENDS
EPOCH STARTS
TH0 ROB: 4 LSQ: 3 IQ: 0 IPC: 0.0029
TH1 ROB: 106 LSQ: 87 IQ: 96, IPC: 2.1892
TH2 ROB: 4 LSQ: 2 IQ: 0, IPC: 0.0014
TH3 ROB: 4 LSQ: 2 IQ: 0, IPC: 0.0032
EPOCH ENDS
EPOCH STARTS
TH0 ROB: 4 LSQ: 3 IQ: 0 IPC: 0.0029
TH1 ROB: 106 LSQ: 87 IQ: 96, IPC: 2.1892
TH2 ROB: 4 LSQ: 2 IQ: 0, IPC: 0.0014
TH3 ROB: 4 LSQ: 2 IQ: 0, IPC: 0.0032
EPOCH ENDS
EPOCH STARTS
TH0 ROB: 4 LSQ: 3 IQ: 0 IPC: 0.0029
TH1 ROB: 104 LSQ: 86 IQ: 96, IPC: 2.1893
TH2 ROB: 4 LSQ: 2 IQ: 0, IPC: 0.0014
TH3 ROB: 4 LSQ: 2 IQ: 0, IPC: 0.0032
EPOCH ENDS
EPOCH STARTS
TH0 ROB: 4 LSQ: 3 IQ: 0 IPC: 0.0029
TH1 ROB: 104 LSQ: 87 IQ: 96, IPC: 2.1894
TH2 ROB: 4 LSQ: 2 IQ: 0, IPC: 0.0014
TH3 ROB: 4 LSQ: 2 IQ: 0, IPC: 0.0031
EPOCH ENDS
EPOCH STARTS
TH0 ROB: 4 LSQ: 3 IQ: 0 IPC: 0.0028
TH1 ROB: 105 LSQ: 86 IQ: 96, IPC: 2.1894
TH2 ROB: 4 LSQ: 2 IQ: 0, IPC: 0.0014
TH3 ROB: 4 LSQ: 2 IQ: 0, IPC: 0.0031
EPOCH ENDS
EPOCH STARTS
TH0 ROB: 4 LSQ: 3 IQ: 0 IPC: 0.0028
TH1 ROB: 105 LSQ: 86 IQ: 96, IPC: 2.1895
TH2 ROB: 4 LSQ: 2 IQ: 0, IPC: 0.0014
TH3 ROB: 4 LSQ: 2 IQ: 0, IPC: 0.0031
EPOCH ENDS
EPOCH STARTS
TH0 ROB: 4 LSQ: 3 IQ: 0 IPC: 0.0028
TH1 ROB: 106 LSQ: 87 IQ: 96, IPC: 2.1896
TH2 ROB: 4 LSQ: 2 IQ: 0, IPC: 0.0014
TH3 ROB: 4 LSQ: 2 IQ: 0, IPC: 0.0030
EPOCH ENDS
EPOCH STARTS
TH0 ROB: 4 LSQ: 3 IQ: 0 IPC: 0.0027
TH1 ROB: 105 LSQ: 87 IQ: 96, IPC: 2.1896
TH2 ROB: 4 LSQ: 2 IQ: 0, IPC: 0.0013
TH3 ROB: 4 LSQ: 2 IQ: 0, IPC: 0.0030
EPOCH ENDS
EPOCH STARTS
TH0 ROB: 4 LSQ: 3 IQ: 0 IPC: 0.0027
TH1 ROB: 105 LSQ: 86 IQ: 96, IPC: 2.1897
TH2 ROB: 4 LSQ: 2 IQ: 0, IPC: 0.0013
TH3 ROB: 4 LSQ: 2 IQ: 0, IPC: 0.0030
EPOCH ENDS
EPOCH STARTS
TH0 ROB: 4 LSQ: 3 IQ: 0 IPC: 0.0027
TH1 ROB: 105 LSQ: 86 IQ: 96, IPC: 2.1898
TH2 ROB: 4 LSQ: 2 IQ: 0, IPC: 0.0013
TH3 ROB: 4 LSQ: 2 IQ: 0, IPC: 0.0030
EPOCH ENDS
EPOCH STARTS
TH0 ROB: 4 LSQ: 3 IQ: 0 IPC: 0.0027
TH1 ROB: 105 LSQ: 86 IQ: 96, IPC: 2.1898
TH2 ROB: 4 LSQ: 2 IQ: 0, IPC: 0.0013
TH3 ROB: 4 LSQ: 2 IQ: 0, IPC: 0.0029
EPOCH ENDS
EPOCH STARTS
TH0 ROB: 4 LSQ: 3 IQ: 0 IPC: 0.0026
TH1 ROB: 105 LSQ: 86 IQ: 96, IPC: 2.1899
TH2 ROB: 4 LSQ: 2 IQ: 0, IPC: 0.0013
TH3 ROB: 4 LSQ: 2 IQ: 0, IPC: 0.0029
EPOCH ENDS
EPOCH STARTS
TH0 ROB: 4 LSQ: 3 IQ: 0 IPC: 0.0026
TH1 ROB: 105 LSQ: 87 IQ: 96, IPC: 2.1899
TH2 ROB: 4 LSQ: 2 IQ: 0, IPC: 0.0013
TH3 ROB: 4 LSQ: 2 IQ: 0, IPC: 0.0029
EPOCH ENDS
EPOCH STARTS
TH0 ROB: 4 LSQ: 3 IQ: 0 IPC: 0.0026
TH1 ROB: 105 LSQ: 86 IQ: 96, IPC: 2.1900
TH2 ROB: 4 LSQ: 2 IQ: 0, IPC: 0.0013
TH3 ROB: 4 LSQ: 2 IQ: 0, IPC: 0.0028
EPOCH ENDS
EPOCH STARTS
TH0 ROB: 4 LSQ: 3 IQ: 0 IPC: 0.0026
TH1 ROB: 105 LSQ: 86 IQ: 96, IPC: 2.1901
TH2 ROB: 4 LSQ: 2 IQ: 0, IPC: 0.0013
TH3 ROB: 4 LSQ: 2 IQ: 0, IPC: 0.0028
EPOCH ENDS
EPOCH STARTS
TH0 ROB: 4 LSQ: 3 IQ: 0 IPC: 0.0025
TH1 ROB: 105 LSQ: 86 IQ: 96, IPC: 2.1901
TH2 ROB: 4 LSQ: 2 IQ: 0, IPC: 0.0012
TH3 ROB: 4 LSQ: 2 IQ: 0, IPC: 0.0028
EPOCH ENDS
EPOCH STARTS
TH0 ROB: 4 LSQ: 3 IQ: 0 IPC: 0.0025
TH1 ROB: 105 LSQ: 87 IQ: 96, IPC: 2.1902
TH2 ROB: 4 LSQ: 2 IQ: 0, IPC: 0.0012
TH3 ROB: 4 LSQ: 2 IQ: 0, IPC: 0.0028
EPOCH ENDS
EPOCH STARTS
TH0 ROB: 4 LSQ: 3 IQ: 0 IPC: 0.0025
TH1 ROB: 105 LSQ: 88 IQ: 96, IPC: 2.1902
TH2 ROB: 4 LSQ: 2 IQ: 0, IPC: 0.0012
TH3 ROB: 4 LSQ: 2 IQ: 0, IPC: 0.0027
EPOCH ENDS
EPOCH STARTS
TH0 ROB: 4 LSQ: 3 IQ: 0 IPC: 0.0025
TH1 ROB: 104 LSQ: 85 IQ: 96, IPC: 2.1903
TH2 ROB: 4 LSQ: 2 IQ: 0, IPC: 0.0012
TH3 ROB: 4 LSQ: 2 IQ: 0, IPC: 0.0027
EPOCH ENDS
EPOCH STARTS
TH0 ROB: 4 LSQ: 3 IQ: 0 IPC: 0.0024
TH1 ROB: 104 LSQ: 85 IQ: 96, IPC: 2.1903
TH2 ROB: 4 LSQ: 2 IQ: 0, IPC: 0.0012
TH3 ROB: 4 LSQ: 2 IQ: 0, IPC: 0.0027
EPOCH ENDS
EPOCH STARTS
TH0 ROB: 4 LSQ: 3 IQ: 0 IPC: 0.0024
TH1 ROB: 105 LSQ: 86 IQ: 96, IPC: 2.1904
TH2 ROB: 4 LSQ: 2 IQ: 0, IPC: 0.0012
TH3 ROB: 4 LSQ: 2 IQ: 0, IPC: 0.0027
EPOCH ENDS
EPOCH STARTS
TH0 ROB: 4 LSQ: 3 IQ: 0 IPC: 0.0024
TH1 ROB: 105 LSQ: 87 IQ: 96, IPC: 2.1904
TH2 ROB: 4 LSQ: 2 IQ: 0, IPC: 0.0012
TH3 ROB: 4 LSQ: 2 IQ: 0, IPC: 0.0027
EPOCH ENDS
EPOCH STARTS
TH0 ROB: 4 LSQ: 3 IQ: 0 IPC: 0.0024
TH1 ROB: 106 LSQ: 87 IQ: 96, IPC: 2.1905
TH2 ROB: 4 LSQ: 2 IQ: 0, IPC: 0.0012
TH3 ROB: 4 LSQ: 2 IQ: 0, IPC: 0.0026
EPOCH ENDS
EPOCH STARTS
TH0 ROB: 4 LSQ: 3 IQ: 0 IPC: 0.0024
TH1 ROB: 104 LSQ: 85 IQ: 96, IPC: 2.1905
TH2 ROB: 4 LSQ: 2 IQ: 0, IPC: 0.0012
TH3 ROB: 4 LSQ: 2 IQ: 0, IPC: 0.0026
EPOCH ENDS
EPOCH STARTS
TH0 ROB: 4 LSQ: 3 IQ: 0 IPC: 0.0023
TH1 ROB: 104 LSQ: 85 IQ: 96, IPC: 2.1906
TH2 ROB: 4 LSQ: 2 IQ: 0, IPC: 0.0011
TH3 ROB: 4 LSQ: 2 IQ: 0, IPC: 0.0026
EPOCH ENDS
EPOCH STARTS
TH0 ROB: 4 LSQ: 3 IQ: 0 IPC: 0.0023
TH1 ROB: 104 LSQ: 85 IQ: 96, IPC: 2.1906
TH2 ROB: 4 LSQ: 2 IQ: 0, IPC: 0.0011
TH3 ROB: 4 LSQ: 2 IQ: 0, IPC: 0.0026
EPOCH ENDS
EPOCH STARTS
TH0 ROB: 4 LSQ: 3 IQ: 0 IPC: 0.0023
TH1 ROB: 105 LSQ: 87 IQ: 96, IPC: 2.1907
TH2 ROB: 4 LSQ: 2 IQ: 0, IPC: 0.0011
TH3 ROB: 4 LSQ: 2 IQ: 0, IPC: 0.0025
EPOCH ENDS
EPOCH STARTS
TH0 ROB: 4 LSQ: 3 IQ: 0 IPC: 0.0023
TH1 ROB: 105 LSQ: 86 IQ: 96, IPC: 2.1907
TH2 ROB: 4 LSQ: 2 IQ: 0, IPC: 0.0011
TH3 ROB: 4 LSQ: 2 IQ: 0, IPC: 0.0025
EPOCH ENDS
EPOCH STARTS
TH0 ROB: 4 LSQ: 3 IQ: 0 IPC: 0.0023
TH1 ROB: 104 LSQ: 85 IQ: 96, IPC: 2.1908
TH2 ROB: 4 LSQ: 2 IQ: 0, IPC: 0.0011
TH3 ROB: 4 LSQ: 2 IQ: 0, IPC: 0.0025
EPOCH ENDS
EPOCH STARTS
TH0 ROB: 4 LSQ: 3 IQ: 0 IPC: 0.0022
TH1 ROB: 104 LSQ: 85 IQ: 96, IPC: 2.1908
TH2 ROB: 4 LSQ: 2 IQ: 0, IPC: 0.0011
TH3 ROB: 4 LSQ: 2 IQ: 0, IPC: 0.0025
EPOCH ENDS
EPOCH STARTS
TH0 ROB: 4 LSQ: 3 IQ: 0 IPC: 0.0022
TH1 ROB: 104 LSQ: 87 IQ: 96, IPC: 2.1908
TH2 ROB: 4 LSQ: 2 IQ: 0, IPC: 0.0011
TH3 ROB: 4 LSQ: 2 IQ: 0, IPC: 0.0025
EPOCH ENDS
EPOCH STARTS
TH0 ROB: 4 LSQ: 3 IQ: 0 IPC: 0.0022
TH1 ROB: 105 LSQ: 87 IQ: 96, IPC: 2.1909
TH2 ROB: 4 LSQ: 2 IQ: 0, IPC: 0.0011
TH3 ROB: 4 LSQ: 2 IQ: 0, IPC: 0.0024
EPOCH ENDS
EPOCH STARTS
TH0 ROB: 4 LSQ: 3 IQ: 0 IPC: 0.0022
TH1 ROB: 105 LSQ: 85 IQ: 96, IPC: 2.1909
TH2 ROB: 4 LSQ: 2 IQ: 0, IPC: 0.0011
TH3 ROB: 4 LSQ: 2 IQ: 0, IPC: 0.0024
EPOCH ENDS
EPOCH STARTS
TH0 ROB: 4 LSQ: 3 IQ: 0 IPC: 0.0022
TH1 ROB: 104 LSQ: 85 IQ: 96, IPC: 2.1910
TH2 ROB: 4 LSQ: 2 IQ: 0, IPC: 0.0011
TH3 ROB: 4 LSQ: 2 IQ: 0, IPC: 0.0024
EPOCH ENDS
EPOCH STARTS
TH0 ROB: 4 LSQ: 3 IQ: 0 IPC: 0.0022
TH1 ROB: 104 LSQ: 85 IQ: 96, IPC: 2.1910
TH2 ROB: 4 LSQ: 2 IQ: 0, IPC: 0.0011
TH3 ROB: 4 LSQ: 2 IQ: 0, IPC: 0.0024
EPOCH ENDS
EPOCH STARTS
TH0 ROB: 4 LSQ: 3 IQ: 0 IPC: 0.0021
TH1 ROB: 104 LSQ: 86 IQ: 96, IPC: 2.1910
TH2 ROB: 4 LSQ: 2 IQ: 0, IPC: 0.0010
TH3 ROB: 4 LSQ: 2 IQ: 0, IPC: 0.0024
EPOCH ENDS
EPOCH STARTS
TH0 ROB: 4 LSQ: 3 IQ: 0 IPC: 0.0021
TH1 ROB: 107 LSQ: 88 IQ: 96, IPC: 2.1911
TH2 ROB: 4 LSQ: 2 IQ: 0, IPC: 0.0010
TH3 ROB: 4 LSQ: 2 IQ: 0, IPC: 0.0023
EPOCH ENDS
EPOCH STARTS
TH0 ROB: 4 LSQ: 3 IQ: 0 IPC: 0.0021
TH1 ROB: 105 LSQ: 86 IQ: 96, IPC: 2.1911
TH2 ROB: 4 LSQ: 2 IQ: 0, IPC: 0.0010
TH3 ROB: 4 LSQ: 2 IQ: 0, IPC: 0.0023
EPOCH ENDS
EPOCH STARTS
TH0 ROB: 4 LSQ: 3 IQ: 0 IPC: 0.0021
TH1 ROB: 105 LSQ: 85 IQ: 96, IPC: 2.1912
TH2 ROB: 4 LSQ: 2 IQ: 0, IPC: 0.0010
TH3 ROB: 4 LSQ: 2 IQ: 0, IPC: 0.0023
EPOCH ENDS
EPOCH STARTS
TH0 ROB: 4 LSQ: 3 IQ: 0 IPC: 0.0021
TH1 ROB: 104 LSQ: 85 IQ: 96, IPC: 2.1912
TH2 ROB: 4 LSQ: 2 IQ: 0, IPC: 0.0010
TH3 ROB: 4 LSQ: 2 IQ: 0, IPC: 0.0023
EPOCH ENDS
EPOCH STARTS
TH0 ROB: 4 LSQ: 3 IQ: 0 IPC: 0.0021
TH1 ROB: 105 LSQ: 87 IQ: 96, IPC: 2.1912
TH2 ROB: 4 LSQ: 2 IQ: 0, IPC: 0.0010
TH3 ROB: 4 LSQ: 2 IQ: 0, IPC: 0.0023
EPOCH ENDS
EPOCH STARTS
TH0 ROB: 4 LSQ: 3 IQ: 0 IPC: 0.0020
TH1 ROB: 105 LSQ: 86 IQ: 96, IPC: 2.1913
TH2 ROB: 4 LSQ: 2 IQ: 0, IPC: 0.0010
TH3 ROB: 4 LSQ: 2 IQ: 0, IPC: 0.0023
EPOCH ENDS
EPOCH STARTS
TH0 ROB: 4 LSQ: 3 IQ: 0 IPC: 0.0020
TH1 ROB: 104 LSQ: 85 IQ: 96, IPC: 2.1913
TH2 ROB: 4 LSQ: 2 IQ: 0, IPC: 0.0010
TH3 ROB: 4 LSQ: 2 IQ: 0, IPC: 0.0022
EPOCH ENDS
EPOCH STARTS
TH0 ROB: 4 LSQ: 3 IQ: 0 IPC: 0.0020
TH1 ROB: 105 LSQ: 86 IQ: 96, IPC: 2.1913
TH2 ROB: 4 LSQ: 2 IQ: 0, IPC: 0.0010
TH3 ROB: 4 LSQ: 2 IQ: 0, IPC: 0.0022
EPOCH ENDS
EPOCH STARTS
TH0 ROB: 4 LSQ: 3 IQ: 0 IPC: 0.0020
TH1 ROB: 105 LSQ: 87 IQ: 96, IPC: 2.1914
TH2 ROB: 4 LSQ: 2 IQ: 0, IPC: 0.0010
TH3 ROB: 4 LSQ: 2 IQ: 0, IPC: 0.0022
EPOCH ENDS
EPOCH STARTS
TH0 ROB: 4 LSQ: 3 IQ: 0 IPC: 0.0020
TH1 ROB: 105 LSQ: 87 IQ: 96, IPC: 2.1914
TH2 ROB: 4 LSQ: 2 IQ: 0, IPC: 0.0010
TH3 ROB: 4 LSQ: 2 IQ: 0, IPC: 0.0022
EPOCH ENDS
EPOCH STARTS
TH0 ROB: 4 LSQ: 3 IQ: 0 IPC: 0.0020
TH1 ROB: 106 LSQ: 87 IQ: 96, IPC: 2.1914
TH2 ROB: 4 LSQ: 2 IQ: 0, IPC: 0.0010
TH3 ROB: 4 LSQ: 2 IQ: 0, IPC: 0.0022
EPOCH ENDS
EPOCH STARTS
TH0 ROB: 4 LSQ: 3 IQ: 0 IPC: 0.0020
TH1 ROB: 104 LSQ: 85 IQ: 96, IPC: 2.1915
TH2 ROB: 4 LSQ: 2 IQ: 0, IPC: 0.0010
TH3 ROB: 4 LSQ: 2 IQ: 0, IPC: 0.0022
EPOCH ENDS
EPOCH STARTS
TH0 ROB: 4 LSQ: 3 IQ: 0 IPC: 0.0019
TH1 ROB: 104 LSQ: 85 IQ: 96, IPC: 2.1915
TH2 ROB: 4 LSQ: 2 IQ: 0, IPC: 0.0010
TH3 ROB: 4 LSQ: 2 IQ: 0, IPC: 0.0021
EPOCH ENDS
EPOCH STARTS
TH0 ROB: 4 LSQ: 3 IQ: 0 IPC: 0.0019
TH1 ROB: 105 LSQ: 87 IQ: 96, IPC: 2.1915
TH2 ROB: 4 LSQ: 2 IQ: 0, IPC: 0.0009
TH3 ROB: 4 LSQ: 2 IQ: 0, IPC: 0.0021
EPOCH ENDS
EPOCH STARTS
TH0 ROB: 4 LSQ: 3 IQ: 0 IPC: 0.0019
TH1 ROB: 106 LSQ: 87 IQ: 96, IPC: 2.1916
TH2 ROB: 4 LSQ: 2 IQ: 0, IPC: 0.0009
TH3 ROB: 4 LSQ: 2 IQ: 0, IPC: 0.0021
EPOCH ENDS
EPOCH STARTS
TH0 ROB: 4 LSQ: 3 IQ: 0 IPC: 0.0019
TH1 ROB: 106 LSQ: 87 IQ: 96, IPC: 2.1916
TH2 ROB: 4 LSQ: 2 IQ: 0, IPC: 0.0009
TH3 ROB: 4 LSQ: 2 IQ: 0, IPC: 0.0021
EPOCH ENDS
EPOCH STARTS
TH0 ROB: 4 LSQ: 3 IQ: 0 IPC: 0.0019
TH1 ROB: 106 LSQ: 87 IQ: 96, IPC: 2.1916
TH2 ROB: 4 LSQ: 2 IQ: 0, IPC: 0.0009
TH3 ROB: 4 LSQ: 2 IQ: 0, IPC: 0.0021
EPOCH ENDS
EPOCH STARTS
TH0 ROB: 4 LSQ: 3 IQ: 0 IPC: 0.0019
TH1 ROB: 104 LSQ: 86 IQ: 96, IPC: 2.1917
TH2 ROB: 4 LSQ: 2 IQ: 0, IPC: 0.0009
TH3 ROB: 4 LSQ: 2 IQ: 0, IPC: 0.0021
EPOCH ENDS
EPOCH STARTS
TH0 ROB: 4 LSQ: 3 IQ: 0 IPC: 0.0019
TH1 ROB: 104 LSQ: 87 IQ: 96, IPC: 2.1917
TH2 ROB: 4 LSQ: 2 IQ: 0, IPC: 0.0009
TH3 ROB: 4 LSQ: 2 IQ: 0, IPC: 0.0021
EPOCH ENDS
EPOCH STARTS
TH0 ROB: 4 LSQ: 3 IQ: 0 IPC: 0.0019
TH1 ROB: 105 LSQ: 86 IQ: 96, IPC: 2.1917
TH2 ROB: 4 LSQ: 2 IQ: 0, IPC: 0.0009
TH3 ROB: 4 LSQ: 2 IQ: 0, IPC: 0.0020
EPOCH ENDS
EPOCH STARTS
TH0 ROB: 4 LSQ: 3 IQ: 0 IPC: 0.0018
TH1 ROB: 105 LSQ: 86 IQ: 96, IPC: 2.1917
TH2 ROB: 4 LSQ: 2 IQ: 0, IPC: 0.0009
TH3 ROB: 4 LSQ: 2 IQ: 0, IPC: 0.0020
EPOCH ENDS
EPOCH STARTS
TH0 ROB: 4 LSQ: 3 IQ: 0 IPC: 0.0018
TH1 ROB: 106 LSQ: 87 IQ: 96, IPC: 2.1918
TH2 ROB: 4 LSQ: 2 IQ: 0, IPC: 0.0009
TH3 ROB: 4 LSQ: 2 IQ: 0, IPC: 0.0020
EPOCH ENDS
EPOCH STARTS
TH0 ROB: 4 LSQ: 3 IQ: 0 IPC: 0.0018
TH1 ROB: 105 LSQ: 87 IQ: 96, IPC: 2.1918
TH2 ROB: 4 LSQ: 2 IQ: 0, IPC: 0.0009
TH3 ROB: 4 LSQ: 2 IQ: 0, IPC: 0.0020
EPOCH ENDS
EPOCH STARTS
TH0 ROB: 4 LSQ: 3 IQ: 0 IPC: 0.0018
TH1 ROB: 105 LSQ: 86 IQ: 96, IPC: 2.1918
TH2 ROB: 4 LSQ: 2 IQ: 0, IPC: 0.0009
TH3 ROB: 4 LSQ: 2 IQ: 0, IPC: 0.0020
EPOCH ENDS
EPOCH STARTS
TH0 ROB: 4 LSQ: 3 IQ: 0 IPC: 0.0018
TH1 ROB: 105 LSQ: 86 IQ: 96, IPC: 2.1919
TH2 ROB: 4 LSQ: 2 IQ: 0, IPC: 0.0009
TH3 ROB: 4 LSQ: 2 IQ: 0, IPC: 0.0020
EPOCH ENDS
EPOCH STARTS
TH0 ROB: 4 LSQ: 3 IQ: 0 IPC: 0.0018
TH1 ROB: 105 LSQ: 86 IQ: 96, IPC: 2.1919
TH2 ROB: 4 LSQ: 2 IQ: 0, IPC: 0.0009
TH3 ROB: 4 LSQ: 2 IQ: 0, IPC: 0.0020
EPOCH ENDS
EPOCH STARTS
TH0 ROB: 4 LSQ: 3 IQ: 0 IPC: 0.0018
TH1 ROB: 105 LSQ: 86 IQ: 96, IPC: 2.1919
TH2 ROB: 4 LSQ: 2 IQ: 0, IPC: 0.0009
TH3 ROB: 4 LSQ: 2 IQ: 0, IPC: 0.0020
EPOCH ENDS
EPOCH STARTS
TH0 ROB: 4 LSQ: 3 IQ: 0 IPC: 0.0018
TH1 ROB: 105 LSQ: 87 IQ: 96, IPC: 2.1919
TH2 ROB: 4 LSQ: 2 IQ: 0, IPC: 0.0009
TH3 ROB: 4 LSQ: 2 IQ: 0, IPC: 0.0019
EPOCH ENDS
EPOCH STARTS
TH0 ROB: 4 LSQ: 3 IQ: 0 IPC: 0.0018
TH1 ROB: 105 LSQ: 86 IQ: 96, IPC: 2.1920
TH2 ROB: 4 LSQ: 2 IQ: 0, IPC: 0.0009
TH3 ROB: 4 LSQ: 2 IQ: 0, IPC: 0.0019
EPOCH ENDS
EPOCH STARTS
TH0 ROB: 4 LSQ: 3 IQ: 0 IPC: 0.0017
TH1 ROB: 105 LSQ: 86 IQ: 96, IPC: 2.1920
TH2 ROB: 4 LSQ: 2 IQ: 0, IPC: 0.0008
TH3 ROB: 4 LSQ: 2 IQ: 0, IPC: 0.0019
EPOCH ENDS
EPOCH STARTS
TH0 ROB: 4 LSQ: 3 IQ: 0 IPC: 0.0017
TH1 ROB: 105 LSQ: 86 IQ: 96, IPC: 2.1920
TH2 ROB: 4 LSQ: 2 IQ: 0, IPC: 0.0008
TH3 ROB: 4 LSQ: 2 IQ: 0, IPC: 0.0019
EPOCH ENDS
EPOCH STARTS
TH0 ROB: 4 LSQ: 3 IQ: 0 IPC: 0.0017
TH1 ROB: 105 LSQ: 87 IQ: 96, IPC: 2.1920
TH2 ROB: 4 LSQ: 2 IQ: 0, IPC: 0.0008
TH3 ROB: 4 LSQ: 2 IQ: 0, IPC: 0.0019
EPOCH ENDS
EPOCH STARTS
TH0 ROB: 4 LSQ: 3 IQ: 0 IPC: 0.0017
TH1 ROB: 105 LSQ: 88 IQ: 96, IPC: 2.1921
TH2 ROB: 4 LSQ: 2 IQ: 0, IPC: 0.0008
TH3 ROB: 4 LSQ: 2 IQ: 0, IPC: 0.0019
EPOCH ENDS
EPOCH STARTS
TH0 ROB: 4 LSQ: 3 IQ: 0 IPC: 0.0017
TH1 ROB: 104 LSQ: 85 IQ: 96, IPC: 2.1921
TH2 ROB: 4 LSQ: 2 IQ: 0, IPC: 0.0008
TH3 ROB: 4 LSQ: 2 IQ: 0, IPC: 0.0019
EPOCH ENDS
EPOCH STARTS
TH0 ROB: 4 LSQ: 3 IQ: 0 IPC: 0.0017
TH1 ROB: 104 LSQ: 85 IQ: 96, IPC: 2.1921
TH2 ROB: 4 LSQ: 2 IQ: 0, IPC: 0.0008
TH3 ROB: 4 LSQ: 2 IQ: 0, IPC: 0.0019
EPOCH ENDS
EPOCH STARTS
TH0 ROB: 4 LSQ: 3 IQ: 0 IPC: 0.0017
TH1 ROB: 105 LSQ: 86 IQ: 96, IPC: 2.1921
TH2 ROB: 4 LSQ: 2 IQ: 0, IPC: 0.0008
TH3 ROB: 4 LSQ: 2 IQ: 0, IPC: 0.0018
EPOCH ENDS
EPOCH STARTS
TH0 ROB: 4 LSQ: 3 IQ: 0 IPC: 0.0017
TH1 ROB: 105 LSQ: 87 IQ: 96, IPC: 2.1922
TH2 ROB: 4 LSQ: 2 IQ: 0, IPC: 0.0008
TH3 ROB: 4 LSQ: 2 IQ: 0, IPC: 0.0018
EPOCH ENDS
EPOCH STARTS
TH0 ROB: 4 LSQ: 3 IQ: 0 IPC: 0.0017
TH1 ROB: 106 LSQ: 87 IQ: 96, IPC: 2.1922
TH2 ROB: 4 LSQ: 2 IQ: 0, IPC: 0.0008
TH3 ROB: 4 LSQ: 2 IQ: 0, IPC: 0.0018
EPOCH ENDS
EPOCH STARTS
TH0 ROB: 4 LSQ: 3 IQ: 0 IPC: 0.0016
TH1 ROB: 104 LSQ: 85 IQ: 96, IPC: 2.1922
TH2 ROB: 4 LSQ: 2 IQ: 0, IPC: 0.0008
TH3 ROB: 4 LSQ: 2 IQ: 0, IPC: 0.0018
EPOCH ENDS
EPOCH STARTS
TH0 ROB: 4 LSQ: 3 IQ: 0 IPC: 0.0016
TH1 ROB: 104 LSQ: 85 IQ: 96, IPC: 2.1922
TH2 ROB: 4 LSQ: 2 IQ: 0, IPC: 0.0008
TH3 ROB: 4 LSQ: 2 IQ: 0, IPC: 0.0018
EPOCH ENDS
EPOCH STARTS
TH0 ROB: 4 LSQ: 3 IQ: 0 IPC: 0.0016
TH1 ROB: 104 LSQ: 85 IQ: 96, IPC: 2.1923
TH2 ROB: 4 LSQ: 2 IQ: 0, IPC: 0.0008
TH3 ROB: 4 LSQ: 2 IQ: 0, IPC: 0.0018
EPOCH ENDS
EPOCH STARTS
TH0 ROB: 4 LSQ: 3 IQ: 0 IPC: 0.0016
TH1 ROB: 105 LSQ: 87 IQ: 96, IPC: 2.1923
TH2 ROB: 4 LSQ: 2 IQ: 0, IPC: 0.0008
TH3 ROB: 4 LSQ: 2 IQ: 0, IPC: 0.0018
EPOCH ENDS
EPOCH STARTS
TH0 ROB: 4 LSQ: 3 IQ: 0 IPC: 0.0016
TH1 ROB: 105 LSQ: 86 IQ: 96, IPC: 2.1923
TH2 ROB: 4 LSQ: 2 IQ: 0, IPC: 0.0008
TH3 ROB: 4 LSQ: 2 IQ: 0, IPC: 0.0018
EPOCH ENDS
EPOCH STARTS
TH0 ROB: 4 LSQ: 3 IQ: 0 IPC: 0.0016
TH1 ROB: 104 LSQ: 85 IQ: 96, IPC: 2.1923
TH2 ROB: 4 LSQ: 2 IQ: 0, IPC: 0.0008
TH3 ROB: 4 LSQ: 2 IQ: 0, IPC: 0.0018
EPOCH ENDS
EPOCH STARTS
TH0 ROB: 4 LSQ: 3 IQ: 0 IPC: 0.0016
TH1 ROB: 104 LSQ: 85 IQ: 96, IPC: 2.1923
TH2 ROB: 4 LSQ: 2 IQ: 0, IPC: 0.0008
TH3 ROB: 4 LSQ: 2 IQ: 0, IPC: 0.0018
EPOCH ENDS
EPOCH STARTS
TH0 ROB: 4 LSQ: 3 IQ: 0 IPC: 0.0016
TH1 ROB: 104 LSQ: 87 IQ: 96, IPC: 2.1924
TH2 ROB: 4 LSQ: 2 IQ: 0, IPC: 0.0008
TH3 ROB: 4 LSQ: 2 IQ: 0, IPC: 0.0017
EPOCH ENDS
EPOCH STARTS
TH0 ROB: 4 LSQ: 3 IQ: 0 IPC: 0.0016
TH1 ROB: 105 LSQ: 87 IQ: 96, IPC: 2.1924
TH2 ROB: 4 LSQ: 2 IQ: 0, IPC: 0.0008
TH3 ROB: 4 LSQ: 2 IQ: 0, IPC: 0.0017
EPOCH ENDS
EPOCH STARTS
TH0 ROB: 4 LSQ: 3 IQ: 0 IPC: 0.0016
TH1 ROB: 105 LSQ: 85 IQ: 96, IPC: 2.1924
TH2 ROB: 4 LSQ: 2 IQ: 0, IPC: 0.0008
TH3 ROB: 4 LSQ: 2 IQ: 0, IPC: 0.0017
EPOCH ENDS
EPOCH STARTS
TH0 ROB: 4 LSQ: 3 IQ: 0 IPC: 0.0016
TH1 ROB: 104 LSQ: 85 IQ: 96, IPC: 2.1924
TH2 ROB: 4 LSQ: 2 IQ: 0, IPC: 0.0008
TH3 ROB: 4 LSQ: 2 IQ: 0, IPC: 0.0017
EPOCH ENDS
EPOCH STARTS
TH0 ROB: 4 LSQ: 3 IQ: 0 IPC: 0.0015
TH1 ROB: 104 LSQ: 85 IQ: 96, IPC: 2.1924
TH2 ROB: 4 LSQ: 2 IQ: 0, IPC: 0.0008
TH3 ROB: 4 LSQ: 2 IQ: 0, IPC: 0.0017
EPOCH ENDS
EPOCH STARTS
TH0 ROB: 4 LSQ: 3 IQ: 0 IPC: 0.0015
TH1 ROB: 104 LSQ: 86 IQ: 96, IPC: 2.1925
TH2 ROB: 4 LSQ: 2 IQ: 0, IPC: 0.0008
TH3 ROB: 4 LSQ: 2 IQ: 0, IPC: 0.0017
EPOCH ENDS
EPOCH STARTS
TH0 ROB: 4 LSQ: 3 IQ: 0 IPC: 0.0015
TH1 ROB: 107 LSQ: 88 IQ: 96, IPC: 2.1925
TH2 ROB: 4 LSQ: 2 IQ: 0, IPC: 0.0007
TH3 ROB: 4 LSQ: 2 IQ: 0, IPC: 0.0017
EPOCH ENDS
EPOCH STARTS
TH0 ROB: 4 LSQ: 3 IQ: 0 IPC: 0.0015
TH1 ROB: 105 LSQ: 86 IQ: 96, IPC: 2.1925
TH2 ROB: 4 LSQ: 2 IQ: 0, IPC: 0.0007
TH3 ROB: 4 LSQ: 2 IQ: 0, IPC: 0.0017
EPOCH ENDS
EPOCH STARTS
TH0 ROB: 4 LSQ: 3 IQ: 0 IPC: 0.0015
TH1 ROB: 105 LSQ: 85 IQ: 96, IPC: 2.1925
TH2 ROB: 4 LSQ: 2 IQ: 0, IPC: 0.0007
TH3 ROB: 4 LSQ: 2 IQ: 0, IPC: 0.0017
EPOCH ENDS
EPOCH STARTS
TH0 ROB: 4 LSQ: 3 IQ: 0 IPC: 0.0015
TH1 ROB: 104 LSQ: 85 IQ: 96, IPC: 2.1925
TH2 ROB: 4 LSQ: 2 IQ: 0, IPC: 0.0007
TH3 ROB: 4 LSQ: 2 IQ: 0, IPC: 0.0017
EPOCH ENDS
EPOCH STARTS
TH0 ROB: 4 LSQ: 3 IQ: 0 IPC: 0.0015
TH1 ROB: 105 LSQ: 87 IQ: 96, IPC: 2.1926
TH2 ROB: 4 LSQ: 2 IQ: 0, IPC: 0.0007
TH3 ROB: 4 LSQ: 2 IQ: 0, IPC: 0.0016
EPOCH ENDS
EPOCH STARTS
TH0 ROB: 4 LSQ: 3 IQ: 0 IPC: 0.0015
TH1 ROB: 105 LSQ: 86 IQ: 96, IPC: 2.1926
TH2 ROB: 4 LSQ: 2 IQ: 0, IPC: 0.0007
TH3 ROB: 4 LSQ: 2 IQ: 0, IPC: 0.0016
EPOCH ENDS
EPOCH STARTS
TH0 ROB: 4 LSQ: 3 IQ: 0 IPC: 0.0015
TH1 ROB: 104 LSQ: 85 IQ: 96, IPC: 2.1926
TH2 ROB: 4 LSQ: 2 IQ: 0, IPC: 0.0007
TH3 ROB: 4 LSQ: 2 IQ: 0, IPC: 0.0016
EPOCH ENDS
EPOCH STARTS
TH0 ROB: 4 LSQ: 3 IQ: 0 IPC: 0.0015
TH1 ROB: 105 LSQ: 86 IQ: 96, IPC: 2.1926
TH2 ROB: 4 LSQ: 2 IQ: 0, IPC: 0.0007
TH3 ROB: 4 LSQ: 2 IQ: 0, IPC: 0.0016
EPOCH ENDS
EPOCH STARTS
TH0 ROB: 4 LSQ: 3 IQ: 0 IPC: 0.0015
TH1 ROB: 105 LSQ: 87 IQ: 96, IPC: 2.1926
TH2 ROB: 4 LSQ: 2 IQ: 0, IPC: 0.0007
TH3 ROB: 4 LSQ: 2 IQ: 0, IPC: 0.0016
EPOCH ENDS
EPOCH STARTS
TH0 ROB: 4 LSQ: 3 IQ: 0 IPC: 0.0015
TH1 ROB: 105 LSQ: 87 IQ: 96, IPC: 2.1927
TH2 ROB: 4 LSQ: 2 IQ: 0, IPC: 0.0007
TH3 ROB: 4 LSQ: 2 IQ: 0, IPC: 0.0016
EPOCH ENDS
EPOCH STARTS
TH0 ROB: 4 LSQ: 3 IQ: 0 IPC: 0.0014
TH1 ROB: 106 LSQ: 87 IQ: 96, IPC: 2.1927
TH2 ROB: 4 LSQ: 2 IQ: 0, IPC: 0.0007
TH3 ROB: 4 LSQ: 2 IQ: 0, IPC: 0.0016
EPOCH ENDS
EPOCH STARTS
TH0 ROB: 4 LSQ: 3 IQ: 0 IPC: 0.0014
TH1 ROB: 104 LSQ: 85 IQ: 96, IPC: 2.1927
TH2 ROB: 4 LSQ: 2 IQ: 0, IPC: 0.0007
TH3 ROB: 4 LSQ: 2 IQ: 0, IPC: 0.0016
EPOCH ENDS
EPOCH STARTS
TH0 ROB: 4 LSQ: 3 IQ: 0 IPC: 0.0014
TH1 ROB: 104 LSQ: 85 IQ: 96, IPC: 2.1927
TH2 ROB: 4 LSQ: 2 IQ: 0, IPC: 0.0007
TH3 ROB: 4 LSQ: 2 IQ: 0, IPC: 0.0016
EPOCH ENDS
EPOCH STARTS
TH0 ROB: 4 LSQ: 3 IQ: 0 IPC: 0.0014
TH1 ROB: 105 LSQ: 87 IQ: 96, IPC: 2.1927
TH2 ROB: 4 LSQ: 2 IQ: 0, IPC: 0.0007
TH3 ROB: 4 LSQ: 2 IQ: 0, IPC: 0.0016
EPOCH ENDS
EPOCH STARTS
TH0 ROB: 4 LSQ: 3 IQ: 0 IPC: 0.0014
TH1 ROB: 106 LSQ: 87 IQ: 96, IPC: 2.1927
TH2 ROB: 4 LSQ: 2 IQ: 0, IPC: 0.0007
TH3 ROB: 4 LSQ: 2 IQ: 0, IPC: 0.0016
EPOCH ENDS
EPOCH STARTS
TH0 ROB: 4 LSQ: 3 IQ: 0 IPC: 0.0014
TH1 ROB: 106 LSQ: 87 IQ: 96, IPC: 2.1928
TH2 ROB: 4 LSQ: 2 IQ: 0, IPC: 0.0007
TH3 ROB: 4 LSQ: 2 IQ: 0, IPC: 0.0016
EPOCH ENDS
EPOCH STARTS
TH0 ROB: 4 LSQ: 3 IQ: 0 IPC: 0.0014
TH1 ROB: 106 LSQ: 87 IQ: 96, IPC: 2.1928
TH2 ROB: 4 LSQ: 2 IQ: 0, IPC: 0.0007
TH3 ROB: 4 LSQ: 2 IQ: 0, IPC: 0.0015
EPOCH ENDS
EPOCH STARTS
TH0 ROB: 4 LSQ: 3 IQ: 0 IPC: 0.0014
TH1 ROB: 104 LSQ: 86 IQ: 96, IPC: 2.1928
TH2 ROB: 4 LSQ: 2 IQ: 0, IPC: 0.0007
TH3 ROB: 4 LSQ: 2 IQ: 0, IPC: 0.0015
EPOCH ENDS
EPOCH STARTS
TH0 ROB: 4 LSQ: 3 IQ: 0 IPC: 0.0014
TH1 ROB: 104 LSQ: 87 IQ: 96, IPC: 2.1928
TH2 ROB: 4 LSQ: 2 IQ: 0, IPC: 0.0007
TH3 ROB: 4 LSQ: 2 IQ: 0, IPC: 0.0015
EPOCH ENDS
EPOCH STARTS
TH0 ROB: 4 LSQ: 3 IQ: 0 IPC: 0.0014
TH1 ROB: 105 LSQ: 86 IQ: 96, IPC: 2.1928
TH2 ROB: 4 LSQ: 2 IQ: 0, IPC: 0.0007
TH3 ROB: 4 LSQ: 2 IQ: 0, IPC: 0.0015
EPOCH ENDS
EPOCH STARTS
TH0 ROB: 4 LSQ: 3 IQ: 0 IPC: 0.0014
TH1 ROB: 105 LSQ: 86 IQ: 96, IPC: 2.1928
TH2 ROB: 4 LSQ: 2 IQ: 0, IPC: 0.0007
TH3 ROB: 4 LSQ: 2 IQ: 0, IPC: 0.0015
EPOCH ENDS
EPOCH STARTS
TH0 ROB: 4 LSQ: 3 IQ: 0 IPC: 0.0014
TH1 ROB: 106 LSQ: 87 IQ: 96, IPC: 2.1929
TH2 ROB: 4 LSQ: 2 IQ: 0, IPC: 0.0007
TH3 ROB: 4 LSQ: 2 IQ: 0, IPC: 0.0015
EPOCH ENDS
EPOCH STARTS
TH0 ROB: 4 LSQ: 3 IQ: 0 IPC: 0.0014
TH1 ROB: 105 LSQ: 87 IQ: 96, IPC: 2.1929
TH2 ROB: 4 LSQ: 2 IQ: 0, IPC: 0.0007
TH3 ROB: 4 LSQ: 2 IQ: 0, IPC: 0.0015
EPOCH ENDS
EPOCH STARTS
TH0 ROB: 4 LSQ: 3 IQ: 0 IPC: 0.0014
TH1 ROB: 105 LSQ: 86 IQ: 96, IPC: 2.1929
TH2 ROB: 4 LSQ: 2 IQ: 0, IPC: 0.0007
TH3 ROB: 4 LSQ: 2 IQ: 0, IPC: 0.0015
EPOCH ENDS
EPOCH STARTS
TH0 ROB: 4 LSQ: 3 IQ: 0 IPC: 0.0013
TH1 ROB: 105 LSQ: 86 IQ: 96, IPC: 2.1929
TH2 ROB: 4 LSQ: 2 IQ: 0, IPC: 0.0007
TH3 ROB: 4 LSQ: 2 IQ: 0, IPC: 0.0015
EPOCH ENDS
EPOCH STARTS
TH0 ROB: 4 LSQ: 3 IQ: 0 IPC: 0.0013
TH1 ROB: 105 LSQ: 86 IQ: 96, IPC: 2.1929
TH2 ROB: 4 LSQ: 2 IQ: 0, IPC: 0.0007
TH3 ROB: 4 LSQ: 2 IQ: 0, IPC: 0.0015
EPOCH ENDS
EPOCH STARTS
TH0 ROB: 4 LSQ: 3 IQ: 0 IPC: 0.0013
TH1 ROB: 105 LSQ: 86 IQ: 96, IPC: 2.1929
TH2 ROB: 4 LSQ: 2 IQ: 0, IPC: 0.0007
TH3 ROB: 4 LSQ: 2 IQ: 0, IPC: 0.0015
EPOCH ENDS
EPOCH STARTS
TH0 ROB: 4 LSQ: 3 IQ: 0 IPC: 0.0013
TH1 ROB: 105 LSQ: 87 IQ: 96, IPC: 2.1930
TH2 ROB: 4 LSQ: 2 IQ: 0, IPC: 0.0006
TH3 ROB: 4 LSQ: 2 IQ: 0, IPC: 0.0015
EPOCH ENDS
EPOCH STARTS
TH0 ROB: 4 LSQ: 3 IQ: 0 IPC: 0.0013
TH1 ROB: 105 LSQ: 86 IQ: 96, IPC: 2.1930
TH2 ROB: 4 LSQ: 2 IQ: 0, IPC: 0.0006
TH3 ROB: 4 LSQ: 2 IQ: 0, IPC: 0.0015
EPOCH ENDS
EPOCH STARTS
TH0 ROB: 4 LSQ: 3 IQ: 0 IPC: 0.0013
TH1 ROB: 105 LSQ: 86 IQ: 96, IPC: 2.1930
TH2 ROB: 4 LSQ: 2 IQ: 0, IPC: 0.0006
TH3 ROB: 4 LSQ: 2 IQ: 0, IPC: 0.0015
EPOCH ENDS
EPOCH STARTS
TH0 ROB: 4 LSQ: 3 IQ: 0 IPC: 0.0013
TH1 ROB: 105 LSQ: 86 IQ: 96, IPC: 2.1930
TH2 ROB: 4 LSQ: 2 IQ: 0, IPC: 0.0006
TH3 ROB: 4 LSQ: 2 IQ: 0, IPC: 0.0014
EPOCH ENDS
EPOCH STARTS
TH0 ROB: 4 LSQ: 3 IQ: 0 IPC: 0.0013
TH1 ROB: 105 LSQ: 87 IQ: 96, IPC: 2.1930
TH2 ROB: 4 LSQ: 2 IQ: 0, IPC: 0.0006
TH3 ROB: 4 LSQ: 2 IQ: 0, IPC: 0.0014
EPOCH ENDS
EPOCH STARTS
TH0 ROB: 4 LSQ: 3 IQ: 0 IPC: 0.0013
TH1 ROB: 105 LSQ: 88 IQ: 96, IPC: 2.1930
TH2 ROB: 4 LSQ: 2 IQ: 0, IPC: 0.0006
TH3 ROB: 4 LSQ: 2 IQ: 0, IPC: 0.0014
EPOCH ENDS
EPOCH STARTS
TH0 ROB: 4 LSQ: 3 IQ: 0 IPC: 0.0013
TH1 ROB: 104 LSQ: 85 IQ: 96, IPC: 2.1930
TH2 ROB: 4 LSQ: 2 IQ: 0, IPC: 0.0006
TH3 ROB: 4 LSQ: 2 IQ: 0, IPC: 0.0014
EPOCH ENDS
EPOCH STARTS
TH0 ROB: 4 LSQ: 3 IQ: 0 IPC: 0.0013
TH1 ROB: 104 LSQ: 85 IQ: 96, IPC: 2.1931
TH2 ROB: 4 LSQ: 2 IQ: 0, IPC: 0.0006
TH3 ROB: 4 LSQ: 2 IQ: 0, IPC: 0.0014
EPOCH ENDS
EPOCH STARTS
TH0 ROB: 4 LSQ: 3 IQ: 0 IPC: 0.0013
TH1 ROB: 105 LSQ: 86 IQ: 96, IPC: 2.1931
TH2 ROB: 4 LSQ: 2 IQ: 0, IPC: 0.0006
TH3 ROB: 4 LSQ: 2 IQ: 0, IPC: 0.0014
EPOCH ENDS
EPOCH STARTS
TH0 ROB: 4 LSQ: 3 IQ: 0 IPC: 0.0013
TH1 ROB: 105 LSQ: 87 IQ: 96, IPC: 2.1931
TH2 ROB: 4 LSQ: 2 IQ: 0, IPC: 0.0006
TH3 ROB: 4 LSQ: 2 IQ: 0, IPC: 0.0014
EPOCH ENDS
EPOCH STARTS
TH0 ROB: 4 LSQ: 3 IQ: 0 IPC: 0.0013
TH1 ROB: 106 LSQ: 87 IQ: 96, IPC: 2.1931
TH2 ROB: 4 LSQ: 2 IQ: 0, IPC: 0.0006
TH3 ROB: 4 LSQ: 2 IQ: 0, IPC: 0.0014
EPOCH ENDS
EPOCH STARTS
TH0 ROB: 4 LSQ: 3 IQ: 0 IPC: 0.0013
TH1 ROB: 104 LSQ: 85 IQ: 96, IPC: 2.1931
TH2 ROB: 4 LSQ: 2 IQ: 0, IPC: 0.0006
TH3 ROB: 4 LSQ: 2 IQ: 0, IPC: 0.0014
EPOCH ENDS
EPOCH STARTS
TH0 ROB: 4 LSQ: 3 IQ: 0 IPC: 0.0013
TH1 ROB: 104 LSQ: 85 IQ: 96, IPC: 2.1931
TH2 ROB: 4 LSQ: 2 IQ: 0, IPC: 0.0006
TH3 ROB: 4 LSQ: 2 IQ: 0, IPC: 0.0014
EPOCH ENDS
EPOCH STARTS
TH0 ROB: 4 LSQ: 3 IQ: 0 IPC: 0.0013
TH1 ROB: 104 LSQ: 85 IQ: 96, IPC: 2.1931
TH2 ROB: 4 LSQ: 2 IQ: 0, IPC: 0.0006
TH3 ROB: 4 LSQ: 2 IQ: 0, IPC: 0.0014
EPOCH ENDS
EPOCH STARTS
TH0 ROB: 4 LSQ: 3 IQ: 0 IPC: 0.0012
TH1 ROB: 105 LSQ: 87 IQ: 96, IPC: 2.1932
TH2 ROB: 4 LSQ: 2 IQ: 0, IPC: 0.0006
TH3 ROB: 4 LSQ: 2 IQ: 0, IPC: 0.0014
EPOCH ENDS
EPOCH STARTS
TH0 ROB: 4 LSQ: 3 IQ: 0 IPC: 0.0012
TH1 ROB: 105 LSQ: 86 IQ: 96, IPC: 2.1932
TH2 ROB: 4 LSQ: 2 IQ: 0, IPC: 0.0006
TH3 ROB: 4 LSQ: 2 IQ: 0, IPC: 0.0014
EPOCH ENDS
EPOCH STARTS
TH0 ROB: 4 LSQ: 3 IQ: 0 IPC: 0.0012
TH1 ROB: 104 LSQ: 85 IQ: 96, IPC: 2.1932
TH2 ROB: 4 LSQ: 2 IQ: 0, IPC: 0.0006
TH3 ROB: 4 LSQ: 2 IQ: 0, IPC: 0.0014
EPOCH ENDS
EPOCH STARTS
TH0 ROB: 4 LSQ: 3 IQ: 0 IPC: 0.0012
TH1 ROB: 104 LSQ: 85 IQ: 96, IPC: 2.1932
TH2 ROB: 4 LSQ: 2 IQ: 0, IPC: 0.0006
TH3 ROB: 4 LSQ: 2 IQ: 0, IPC: 0.0014
EPOCH ENDS
EPOCH STARTS
TH0 ROB: 4 LSQ: 3 IQ: 0 IPC: 0.0012
TH1 ROB: 104 LSQ: 87 IQ: 96, IPC: 2.1932
TH2 ROB: 4 LSQ: 2 IQ: 0, IPC: 0.0006
TH3 ROB: 4 LSQ: 2 IQ: 0, IPC: 0.0013
EPOCH ENDS
EPOCH STARTS
TH0 ROB: 4 LSQ: 3 IQ: 0 IPC: 0.0012
TH1 ROB: 105 LSQ: 87 IQ: 96, IPC: 2.1932
TH2 ROB: 4 LSQ: 2 IQ: 0, IPC: 0.0006
TH3 ROB: 4 LSQ: 2 IQ: 0, IPC: 0.0013
EPOCH ENDS
EPOCH STARTS
TH0 ROB: 4 LSQ: 3 IQ: 0 IPC: 0.0012
TH1 ROB: 105 LSQ: 85 IQ: 96, IPC: 2.1932
TH2 ROB: 4 LSQ: 2 IQ: 0, IPC: 0.0006
TH3 ROB: 4 LSQ: 2 IQ: 0, IPC: 0.0013
EPOCH ENDS
EPOCH STARTS
TH0 ROB: 4 LSQ: 3 IQ: 0 IPC: 0.0012
TH1 ROB: 104 LSQ: 85 IQ: 96, IPC: 2.1932
TH2 ROB: 4 LSQ: 2 IQ: 0, IPC: 0.0006
TH3 ROB: 4 LSQ: 2 IQ: 0, IPC: 0.0013
EPOCH ENDS
EPOCH STARTS
TH0 ROB: 4 LSQ: 3 IQ: 0 IPC: 0.0012
TH1 ROB: 104 LSQ: 85 IQ: 96, IPC: 2.1933
TH2 ROB: 4 LSQ: 2 IQ: 0, IPC: 0.0006
TH3 ROB: 4 LSQ: 2 IQ: 0, IPC: 0.0013
EPOCH ENDS
EPOCH STARTS
TH0 ROB: 4 LSQ: 3 IQ: 0 IPC: 0.0012
TH1 ROB: 104 LSQ: 86 IQ: 96, IPC: 2.1933
TH2 ROB: 4 LSQ: 2 IQ: 0, IPC: 0.0006
TH3 ROB: 4 LSQ: 2 IQ: 0, IPC: 0.0013
EPOCH ENDS
EPOCH STARTS
TH0 ROB: 4 LSQ: 3 IQ: 0 IPC: 0.0012
TH1 ROB: 107 LSQ: 88 IQ: 96, IPC: 2.1933
TH2 ROB: 4 LSQ: 2 IQ: 0, IPC: 0.0006
TH3 ROB: 4 LSQ: 2 IQ: 0, IPC: 0.0013
EPOCH ENDS
EPOCH STARTS
TH0 ROB: 4 LSQ: 3 IQ: 0 IPC: 0.0012
TH1 ROB: 105 LSQ: 86 IQ: 96, IPC: 2.1933
TH2 ROB: 4 LSQ: 2 IQ: 0, IPC: 0.0006
TH3 ROB: 4 LSQ: 2 IQ: 0, IPC: 0.0013
EPOCH ENDS
EPOCH STARTS
TH0 ROB: 4 LSQ: 3 IQ: 0 IPC: 0.0012
TH1 ROB: 105 LSQ: 85 IQ: 96, IPC: 2.1933
TH2 ROB: 4 LSQ: 2 IQ: 0, IPC: 0.0006
TH3 ROB: 4 LSQ: 2 IQ: 0, IPC: 0.0013
EPOCH ENDS
EPOCH STARTS
TH0 ROB: 4 LSQ: 3 IQ: 0 IPC: 0.0012
TH1 ROB: 104 LSQ: 85 IQ: 96, IPC: 2.1933
TH2 ROB: 4 LSQ: 2 IQ: 0, IPC: 0.0006
TH3 ROB: 4 LSQ: 2 IQ: 0, IPC: 0.0013
EPOCH ENDS
EPOCH STARTS
TH0 ROB: 4 LSQ: 3 IQ: 0 IPC: 0.0012
TH1 ROB: 105 LSQ: 87 IQ: 96, IPC: 2.1933
TH2 ROB: 4 LSQ: 2 IQ: 0, IPC: 0.0006
TH3 ROB: 4 LSQ: 2 IQ: 0, IPC: 0.0013
EPOCH ENDS
EPOCH STARTS
TH0 ROB: 4 LSQ: 3 IQ: 0 IPC: 0.0012
TH1 ROB: 105 LSQ: 86 IQ: 96, IPC: 2.1933
TH2 ROB: 4 LSQ: 2 IQ: 0, IPC: 0.0006
TH3 ROB: 4 LSQ: 2 IQ: 0, IPC: 0.0013
EPOCH ENDS
EPOCH STARTS
TH0 ROB: 4 LSQ: 3 IQ: 0 IPC: 0.0012
TH1 ROB: 104 LSQ: 85 IQ: 96, IPC: 2.1933
TH2 ROB: 4 LSQ: 2 IQ: 0, IPC: 0.0006
TH3 ROB: 4 LSQ: 2 IQ: 0, IPC: 0.0013
EPOCH ENDS
EPOCH STARTS
TH0 ROB: 4 LSQ: 3 IQ: 0 IPC: 0.0012
TH1 ROB: 105 LSQ: 86 IQ: 96, IPC: 2.1934
TH2 ROB: 4 LSQ: 2 IQ: 0, IPC: 0.0006
TH3 ROB: 4 LSQ: 2 IQ: 0, IPC: 0.0013
EPOCH ENDS
EPOCH STARTS
TH0 ROB: 4 LSQ: 3 IQ: 0 IPC: 0.0012
TH1 ROB: 105 LSQ: 87 IQ: 96, IPC: 2.1934
TH2 ROB: 4 LSQ: 2 IQ: 0, IPC: 0.0006
TH3 ROB: 4 LSQ: 2 IQ: 0, IPC: 0.0013
EPOCH ENDS
EPOCH STARTS
TH0 ROB: 4 LSQ: 3 IQ: 0 IPC: 0.0011
TH1 ROB: 105 LSQ: 87 IQ: 96, IPC: 2.1934
TH2 ROB: 4 LSQ: 2 IQ: 0, IPC: 0.0006
TH3 ROB: 4 LSQ: 2 IQ: 0, IPC: 0.0013
EPOCH ENDS
EPOCH STARTS
TH0 ROB: 4 LSQ: 3 IQ: 0 IPC: 0.0011
TH1 ROB: 106 LSQ: 87 IQ: 96, IPC: 2.1934
TH2 ROB: 4 LSQ: 2 IQ: 0, IPC: 0.0006
TH3 ROB: 4 LSQ: 2 IQ: 0, IPC: 0.0013
EPOCH ENDS
EPOCH STARTS
TH0 ROB: 4 LSQ: 3 IQ: 0 IPC: 0.0011
TH1 ROB: 104 LSQ: 85 IQ: 96, IPC: 2.1934
TH2 ROB: 4 LSQ: 2 IQ: 0, IPC: 0.0006
TH3 ROB: 4 LSQ: 2 IQ: 0, IPC: 0.0013
EPOCH ENDS
EPOCH STARTS
TH0 ROB: 4 LSQ: 3 IQ: 0 IPC: 0.0011
TH1 ROB: 104 LSQ: 85 IQ: 96, IPC: 2.1934
TH2 ROB: 4 LSQ: 2 IQ: 0, IPC: 0.0006
TH3 ROB: 4 LSQ: 2 IQ: 0, IPC: 0.0012
EPOCH ENDS
EPOCH STARTS
TH0 ROB: 4 LSQ: 3 IQ: 0 IPC: 0.0011
TH1 ROB: 105 LSQ: 87 IQ: 96, IPC: 2.1934
TH2 ROB: 4 LSQ: 2 IQ: 0, IPC: 0.0006
TH3 ROB: 4 LSQ: 2 IQ: 0, IPC: 0.0012
EPOCH ENDS
EPOCH STARTS
TH0 ROB: 4 LSQ: 3 IQ: 0 IPC: 0.0011
TH1 ROB: 106 LSQ: 87 IQ: 96, IPC: 2.1934
TH2 ROB: 4 LSQ: 2 IQ: 0, IPC: 0.0005
TH3 ROB: 4 LSQ: 2 IQ: 0, IPC: 0.0012
EPOCH ENDS
EPOCH STARTS
TH0 ROB: 4 LSQ: 3 IQ: 0 IPC: 0.0011
TH1 ROB: 106 LSQ: 87 IQ: 96, IPC: 2.1934
TH2 ROB: 4 LSQ: 2 IQ: 0, IPC: 0.0005
TH3 ROB: 4 LSQ: 2 IQ: 0, IPC: 0.0012
EPOCH ENDS
EPOCH STARTS
TH0 ROB: 4 LSQ: 3 IQ: 0 IPC: 0.0011
TH1 ROB: 106 LSQ: 87 IQ: 96, IPC: 2.1935
TH2 ROB: 4 LSQ: 2 IQ: 0, IPC: 0.0005
TH3 ROB: 4 LSQ: 2 IQ: 0, IPC: 0.0012
EPOCH ENDS
EPOCH STARTS
TH0 ROB: 4 LSQ: 3 IQ: 0 IPC: 0.0011
TH1 ROB: 104 LSQ: 86 IQ: 96, IPC: 2.1935
TH2 ROB: 4 LSQ: 2 IQ: 0, IPC: 0.0005
TH3 ROB: 4 LSQ: 2 IQ: 0, IPC: 0.0012
EPOCH ENDS
EPOCH STARTS
TH0 ROB: 4 LSQ: 3 IQ: 0 IPC: 0.0011
TH1 ROB: 104 LSQ: 87 IQ: 96, IPC: 2.1935
TH2 ROB: 4 LSQ: 2 IQ: 0, IPC: 0.0005
TH3 ROB: 4 LSQ: 2 IQ: 0, IPC: 0.0012
EPOCH ENDS
EPOCH STARTS
TH0 ROB: 4 LSQ: 3 IQ: 0 IPC: 0.0011
TH1 ROB: 105 LSQ: 86 IQ: 96, IPC: 2.1935
TH2 ROB: 4 LSQ: 2 IQ: 0, IPC: 0.0005
TH3 ROB: 4 LSQ: 2 IQ: 0, IPC: 0.0012
EPOCH ENDS
EPOCH STARTS
TH0 ROB: 4 LSQ: 3 IQ: 0 IPC: 0.0011
TH1 ROB: 105 LSQ: 86 IQ: 96, IPC: 2.1935
TH2 ROB: 4 LSQ: 2 IQ: 0, IPC: 0.0005
TH3 ROB: 4 LSQ: 2 IQ: 0, IPC: 0.0012
EPOCH ENDS
EPOCH STARTS
TH0 ROB: 4 LSQ: 3 IQ: 0 IPC: 0.0011
TH1 ROB: 106 LSQ: 87 IQ: 96, IPC: 2.1935
TH2 ROB: 4 LSQ: 2 IQ: 0, IPC: 0.0005
TH3 ROB: 4 LSQ: 2 IQ: 0, IPC: 0.0012
EPOCH ENDS
EPOCH STARTS
TH0 ROB: 4 LSQ: 3 IQ: 0 IPC: 0.0011
TH1 ROB: 105 LSQ: 87 IQ: 96, IPC: 2.1935
TH2 ROB: 4 LSQ: 2 IQ: 0, IPC: 0.0005
TH3 ROB: 4 LSQ: 2 IQ: 0, IPC: 0.0012
EPOCH ENDS
EPOCH STARTS
TH0 ROB: 4 LSQ: 3 IQ: 0 IPC: 0.0011
TH1 ROB: 105 LSQ: 86 IQ: 96, IPC: 2.1935
TH2 ROB: 4 LSQ: 2 IQ: 0, IPC: 0.0005
TH3 ROB: 4 LSQ: 2 IQ: 0, IPC: 0.0012
EPOCH ENDS
EPOCH STARTS
TH0 ROB: 4 LSQ: 3 IQ: 0 IPC: 0.0011
TH1 ROB: 105 LSQ: 86 IQ: 96, IPC: 2.1935
TH2 ROB: 4 LSQ: 2 IQ: 0, IPC: 0.0005
TH3 ROB: 4 LSQ: 2 IQ: 0, IPC: 0.0012
EPOCH ENDS
EPOCH STARTS
TH0 ROB: 4 LSQ: 3 IQ: 0 IPC: 0.0011
TH1 ROB: 105 LSQ: 86 IQ: 96, IPC: 2.1935
TH2 ROB: 4 LSQ: 2 IQ: 0, IPC: 0.0005
TH3 ROB: 4 LSQ: 2 IQ: 0, IPC: 0.0012
EPOCH ENDS
EPOCH STARTS
TH0 ROB: 4 LSQ: 3 IQ: 0 IPC: 0.0011
TH1 ROB: 105 LSQ: 86 IQ: 96, IPC: 2.1936
TH2 ROB: 4 LSQ: 2 IQ: 0, IPC: 0.0005
TH3 ROB: 4 LSQ: 2 IQ: 0, IPC: 0.0012
EPOCH ENDS
EPOCH STARTS
TH0 ROB: 4 LSQ: 3 IQ: 0 IPC: 0.0011
TH1 ROB: 105 LSQ: 87 IQ: 96, IPC: 2.1936
TH2 ROB: 4 LSQ: 2 IQ: 0, IPC: 0.0005
TH3 ROB: 4 LSQ: 2 IQ: 0, IPC: 0.0012
EPOCH ENDS
EPOCH STARTS
TH0 ROB: 4 LSQ: 3 IQ: 0 IPC: 0.0011
TH1 ROB: 105 LSQ: 86 IQ: 96, IPC: 2.1936
TH2 ROB: 4 LSQ: 2 IQ: 0, IPC: 0.0005
TH3 ROB: 4 LSQ: 2 IQ: 0, IPC: 0.0012
EPOCH ENDS
EPOCH STARTS
TH0 ROB: 4 LSQ: 3 IQ: 0 IPC: 0.0011
TH1 ROB: 105 LSQ: 86 IQ: 96, IPC: 2.1936
TH2 ROB: 4 LSQ: 2 IQ: 0, IPC: 0.0005
TH3 ROB: 4 LSQ: 2 IQ: 0, IPC: 0.0012
EPOCH ENDS
EPOCH STARTS
TH0 ROB: 4 LSQ: 3 IQ: 0 IPC: 0.0011
TH1 ROB: 105 LSQ: 86 IQ: 96, IPC: 2.1936
TH2 ROB: 4 LSQ: 2 IQ: 0, IPC: 0.0005
TH3 ROB: 4 LSQ: 2 IQ: 0, IPC: 0.0012
EPOCH ENDS
EPOCH STARTS
TH0 ROB: 4 LSQ: 3 IQ: 0 IPC: 0.0011
TH1 ROB: 105 LSQ: 87 IQ: 96, IPC: 2.1936
TH2 ROB: 4 LSQ: 2 IQ: 0, IPC: 0.0005
TH3 ROB: 4 LSQ: 2 IQ: 0, IPC: 0.0012
EPOCH ENDS
EPOCH STARTS
TH0 ROB: 4 LSQ: 3 IQ: 0 IPC: 0.0010
TH1 ROB: 105 LSQ: 88 IQ: 96, IPC: 2.1936
TH2 ROB: 4 LSQ: 2 IQ: 0, IPC: 0.0005
TH3 ROB: 4 LSQ: 2 IQ: 0, IPC: 0.0012
EPOCH ENDS
EPOCH STARTS
TH0 ROB: 4 LSQ: 3 IQ: 0 IPC: 0.0010
TH1 ROB: 104 LSQ: 85 IQ: 96, IPC: 2.1936
TH2 ROB: 4 LSQ: 2 IQ: 0, IPC: 0.0005
TH3 ROB: 4 LSQ: 2 IQ: 0, IPC: 0.0012
EPOCH ENDS
EPOCH STARTS
TH0 ROB: 4 LSQ: 3 IQ: 0 IPC: 0.0010
TH1 ROB: 104 LSQ: 85 IQ: 96, IPC: 2.1936
TH2 ROB: 4 LSQ: 2 IQ: 0, IPC: 0.0005
TH3 ROB: 4 LSQ: 2 IQ: 0, IPC: 0.0011
EPOCH ENDS
EPOCH STARTS
TH0 ROB: 4 LSQ: 3 IQ: 0 IPC: 0.0010
TH1 ROB: 105 LSQ: 86 IQ: 96, IPC: 2.1936
TH2 ROB: 4 LSQ: 2 IQ: 0, IPC: 0.0005
TH3 ROB: 4 LSQ: 2 IQ: 0, IPC: 0.0011
EPOCH ENDS
EPOCH STARTS
TH0 ROB: 4 LSQ: 3 IQ: 0 IPC: 0.0010
TH1 ROB: 105 LSQ: 87 IQ: 96, IPC: 2.1937
TH2 ROB: 4 LSQ: 2 IQ: 0, IPC: 0.0005
TH3 ROB: 4 LSQ: 2 IQ: 0, IPC: 0.0011
EPOCH ENDS
EPOCH STARTS
TH0 ROB: 4 LSQ: 3 IQ: 0 IPC: 0.0010
TH1 ROB: 106 LSQ: 87 IQ: 96, IPC: 2.1937
TH2 ROB: 4 LSQ: 2 IQ: 0, IPC: 0.0005
TH3 ROB: 4 LSQ: 2 IQ: 0, IPC: 0.0011
EPOCH ENDS
EPOCH STARTS
TH0 ROB: 4 LSQ: 3 IQ: 0 IPC: 0.0010
TH1 ROB: 104 LSQ: 85 IQ: 96, IPC: 2.1937
TH2 ROB: 4 LSQ: 2 IQ: 0, IPC: 0.0005
TH3 ROB: 4 LSQ: 2 IQ: 0, IPC: 0.0011
EPOCH ENDS
EPOCH STARTS
TH0 ROB: 4 LSQ: 3 IQ: 0 IPC: 0.0010
TH1 ROB: 104 LSQ: 85 IQ: 96, IPC: 2.1937
TH2 ROB: 4 LSQ: 2 IQ: 0, IPC: 0.0005
TH3 ROB: 4 LSQ: 2 IQ: 0, IPC: 0.0011
EPOCH ENDS
EPOCH STARTS
TH0 ROB: 4 LSQ: 3 IQ: 0 IPC: 0.0010
TH1 ROB: 104 LSQ: 85 IQ: 96, IPC: 2.1937
TH2 ROB: 4 LSQ: 2 IQ: 0, IPC: 0.0005
TH3 ROB: 4 LSQ: 2 IQ: 0, IPC: 0.0011
EPOCH ENDS
EPOCH STARTS
TH0 ROB: 4 LSQ: 3 IQ: 0 IPC: 0.0010
TH1 ROB: 105 LSQ: 87 IQ: 96, IPC: 2.1937
TH2 ROB: 4 LSQ: 2 IQ: 0, IPC: 0.0005
TH3 ROB: 4 LSQ: 2 IQ: 0, IPC: 0.0011
EPOCH ENDS
EPOCH STARTS
TH0 ROB: 4 LSQ: 3 IQ: 0 IPC: 0.0010
TH1 ROB: 105 LSQ: 86 IQ: 96, IPC: 2.1937
TH2 ROB: 4 LSQ: 2 IQ: 0, IPC: 0.0005
TH3 ROB: 4 LSQ: 2 IQ: 0, IPC: 0.0011
EPOCH ENDS
EPOCH STARTS
TH0 ROB: 4 LSQ: 3 IQ: 0 IPC: 0.0010
TH1 ROB: 104 LSQ: 85 IQ: 96, IPC: 2.1937
TH2 ROB: 4 LSQ: 2 IQ: 0, IPC: 0.0005
TH3 ROB: 4 LSQ: 2 IQ: 0, IPC: 0.0011
EPOCH ENDS
EPOCH STARTS
TH0 ROB: 4 LSQ: 3 IQ: 0 IPC: 0.0010
TH1 ROB: 104 LSQ: 85 IQ: 96, IPC: 2.1937
TH2 ROB: 4 LSQ: 2 IQ: 0, IPC: 0.0005
TH3 ROB: 4 LSQ: 2 IQ: 0, IPC: 0.0011
EPOCH ENDS
EPOCH STARTS
TH0 ROB: 4 LSQ: 3 IQ: 0 IPC: 0.0010
TH1 ROB: 104 LSQ: 87 IQ: 96, IPC: 2.1937
TH2 ROB: 4 LSQ: 2 IQ: 0, IPC: 0.0005
TH3 ROB: 4 LSQ: 2 IQ: 0, IPC: 0.0011
EPOCH ENDS
EPOCH STARTS
TH0 ROB: 4 LSQ: 3 IQ: 0 IPC: 0.0010
TH1 ROB: 105 LSQ: 87 IQ: 96, IPC: 2.1937
TH2 ROB: 4 LSQ: 2 IQ: 0, IPC: 0.0005
TH3 ROB: 4 LSQ: 2 IQ: 0, IPC: 0.0011
EPOCH ENDS
EPOCH STARTS
TH0 ROB: 4 LSQ: 3 IQ: 0 IPC: 0.0010
TH1 ROB: 105 LSQ: 85 IQ: 96, IPC: 2.1937
TH2 ROB: 4 LSQ: 2 IQ: 0, IPC: 0.0005
TH3 ROB: 4 LSQ: 2 IQ: 0, IPC: 0.0011
EPOCH ENDS
EPOCH STARTS
TH0 ROB: 4 LSQ: 3 IQ: 0 IPC: 0.0010
TH1 ROB: 104 LSQ: 85 IQ: 96, IPC: 2.1938
TH2 ROB: 4 LSQ: 2 IQ: 0, IPC: 0.0005
TH3 ROB: 4 LSQ: 2 IQ: 0, IPC: 0.0011
EPOCH ENDS
EPOCH STARTS
TH0 ROB: 4 LSQ: 3 IQ: 0 IPC: 0.0010
TH1 ROB: 104 LSQ: 85 IQ: 96, IPC: 2.1938
TH2 ROB: 4 LSQ: 2 IQ: 0, IPC: 0.0005
TH3 ROB: 4 LSQ: 2 IQ: 0, IPC: 0.0011
EPOCH ENDS
EPOCH STARTS
TH0 ROB: 4 LSQ: 3 IQ: 0 IPC: 0.0010
TH1 ROB: 104 LSQ: 86 IQ: 96, IPC: 2.1938
TH2 ROB: 4 LSQ: 2 IQ: 0, IPC: 0.0005
TH3 ROB: 4 LSQ: 2 IQ: 0, IPC: 0.0011
EPOCH ENDS
EPOCH STARTS
TH0 ROB: 4 LSQ: 3 IQ: 0 IPC: 0.0010
TH1 ROB: 107 LSQ: 88 IQ: 96, IPC: 2.1938
TH2 ROB: 4 LSQ: 2 IQ: 0, IPC: 0.0005
TH3 ROB: 4 LSQ: 2 IQ: 0, IPC: 0.0011
EPOCH ENDS
EPOCH STARTS
TH0 ROB: 4 LSQ: 3 IQ: 0 IPC: 0.0010
TH1 ROB: 105 LSQ: 86 IQ: 96, IPC: 2.1938
TH2 ROB: 4 LSQ: 2 IQ: 0, IPC: 0.0005
TH3 ROB: 4 LSQ: 2 IQ: 0, IPC: 0.0011
EPOCH ENDS
EPOCH STARTS
TH0 ROB: 4 LSQ: 3 IQ: 0 IPC: 0.0010
TH1 ROB: 105 LSQ: 85 IQ: 96, IPC: 2.1938
TH2 ROB: 4 LSQ: 2 IQ: 0, IPC: 0.0005
TH3 ROB: 4 LSQ: 2 IQ: 0, IPC: 0.0011
EPOCH ENDS
EPOCH STARTS
TH0 ROB: 4 LSQ: 3 IQ: 0 IPC: 0.0010
TH1 ROB: 104 LSQ: 85 IQ: 96, IPC: 2.1938
TH2 ROB: 4 LSQ: 2 IQ: 0, IPC: 0.0005
TH3 ROB: 4 LSQ: 2 IQ: 0, IPC: 0.0011
EPOCH ENDS
EPOCH STARTS
TH0 ROB: 4 LSQ: 3 IQ: 0 IPC: 0.0010
TH1 ROB: 105 LSQ: 87 IQ: 96, IPC: 2.1938
TH2 ROB: 4 LSQ: 2 IQ: 0, IPC: 0.0005
TH3 ROB: 4 LSQ: 2 IQ: 0, IPC: 0.0011
EPOCH ENDS
EPOCH STARTS
TH0 ROB: 4 LSQ: 3 IQ: 0 IPC: 0.0010
TH1 ROB: 105 LSQ: 86 IQ: 96, IPC: 2.1938
TH2 ROB: 4 LSQ: 2 IQ: 0, IPC: 0.0005
TH3 ROB: 4 LSQ: 2 IQ: 0, IPC: 0.0011
EPOCH ENDS
EPOCH STARTS
TH0 ROB: 4 LSQ: 3 IQ: 0 IPC: 0.0010
TH1 ROB: 104 LSQ: 85 IQ: 96, IPC: 2.1938
TH2 ROB: 4 LSQ: 2 IQ: 0, IPC: 0.0005
TH3 ROB: 4 LSQ: 2 IQ: 0, IPC: 0.0011
EPOCH ENDS
EPOCH STARTS
TH0 ROB: 4 LSQ: 3 IQ: 0 IPC: 0.0010
TH1 ROB: 105 LSQ: 86 IQ: 96, IPC: 2.1938
TH2 ROB: 4 LSQ: 2 IQ: 0, IPC: 0.0005
TH3 ROB: 4 LSQ: 2 IQ: 0, IPC: 0.0011
EPOCH ENDS
EPOCH STARTS
TH0 ROB: 4 LSQ: 3 IQ: 0 IPC: 0.0010
TH1 ROB: 105 LSQ: 87 IQ: 96, IPC: 2.1938
TH2 ROB: 4 LSQ: 2 IQ: 0, IPC: 0.0005
TH3 ROB: 4 LSQ: 2 IQ: 0, IPC: 0.0010
EPOCH ENDS
EPOCH STARTS
TH0 ROB: 4 LSQ: 3 IQ: 0 IPC: 0.0009
TH1 ROB: 105 LSQ: 87 IQ: 96, IPC: 2.1939
TH2 ROB: 4 LSQ: 2 IQ: 0, IPC: 0.0005
TH3 ROB: 4 LSQ: 2 IQ: 0, IPC: 0.0010
EPOCH ENDS
EPOCH STARTS
TH0 ROB: 4 LSQ: 3 IQ: 0 IPC: 0.0009
TH1 ROB: 106 LSQ: 87 IQ: 96, IPC: 2.1939
TH2 ROB: 4 LSQ: 2 IQ: 0, IPC: 0.0005
TH3 ROB: 4 LSQ: 2 IQ: 0, IPC: 0.0010
EPOCH ENDS
EPOCH STARTS
TH0 ROB: 4 LSQ: 3 IQ: 0 IPC: 0.0009
TH1 ROB: 104 LSQ: 85 IQ: 96, IPC: 2.1939
TH2 ROB: 4 LSQ: 2 IQ: 0, IPC: 0.0005
TH3 ROB: 4 LSQ: 2 IQ: 0, IPC: 0.0010
EPOCH ENDS
EPOCH STARTS
TH0 ROB: 4 LSQ: 3 IQ: 0 IPC: 0.0009
TH1 ROB: 104 LSQ: 85 IQ: 96, IPC: 2.1939
TH2 ROB: 4 LSQ: 2 IQ: 0, IPC: 0.0005
TH3 ROB: 4 LSQ: 2 IQ: 0, IPC: 0.0010
EPOCH ENDS
EPOCH STARTS
TH0 ROB: 4 LSQ: 3 IQ: 0 IPC: 0.0009
TH1 ROB: 105 LSQ: 87 IQ: 96, IPC: 2.1939
TH2 ROB: 4 LSQ: 2 IQ: 0, IPC: 0.0005
TH3 ROB: 4 LSQ: 2 IQ: 0, IPC: 0.0010
EPOCH ENDS
EPOCH STARTS
TH0 ROB: 4 LSQ: 3 IQ: 0 IPC: 0.0009
TH1 ROB: 106 LSQ: 87 IQ: 96, IPC: 2.1939
TH2 ROB: 4 LSQ: 2 IQ: 0, IPC: 0.0005
TH3 ROB: 4 LSQ: 2 IQ: 0, IPC: 0.0010
EPOCH ENDS
EPOCH STARTS
TH0 ROB: 4 LSQ: 3 IQ: 0 IPC: 0.0009
TH1 ROB: 106 LSQ: 87 IQ: 96, IPC: 2.1939
TH2 ROB: 4 LSQ: 2 IQ: 0, IPC: 0.0005
TH3 ROB: 4 LSQ: 2 IQ: 0, IPC: 0.0010
EPOCH ENDS
EPOCH STARTS
TH0 ROB: 4 LSQ: 3 IQ: 0 IPC: 0.0009
TH1 ROB: 106 LSQ: 87 IQ: 96, IPC: 2.1939
TH2 ROB: 4 LSQ: 2 IQ: 0, IPC: 0.0005
TH3 ROB: 4 LSQ: 2 IQ: 0, IPC: 0.0010
EPOCH ENDS
EPOCH STARTS
TH0 ROB: 4 LSQ: 3 IQ: 0 IPC: 0.0009
TH1 ROB: 104 LSQ: 86 IQ: 96, IPC: 2.1939
TH2 ROB: 4 LSQ: 2 IQ: 0, IPC: 0.0005
TH3 ROB: 4 LSQ: 2 IQ: 0, IPC: 0.0010
EPOCH ENDS
EPOCH STARTS
TH0 ROB: 4 LSQ: 3 IQ: 0 IPC: 0.0009
TH1 ROB: 104 LSQ: 87 IQ: 96, IPC: 2.1939
TH2 ROB: 4 LSQ: 2 IQ: 0, IPC: 0.0004
TH3 ROB: 4 LSQ: 2 IQ: 0, IPC: 0.0010
EPOCH ENDS
EPOCH STARTS
TH0 ROB: 4 LSQ: 3 IQ: 0 IPC: 0.0009
TH1 ROB: 105 LSQ: 86 IQ: 96, IPC: 2.1939
TH2 ROB: 4 LSQ: 2 IQ: 0, IPC: 0.0004
TH3 ROB: 4 LSQ: 2 IQ: 0, IPC: 0.0010
EPOCH ENDS
EPOCH STARTS
TH0 ROB: 4 LSQ: 3 IQ: 0 IPC: 0.0009
TH1 ROB: 105 LSQ: 86 IQ: 96, IPC: 2.1939
TH2 ROB: 4 LSQ: 2 IQ: 0, IPC: 0.0004
TH3 ROB: 4 LSQ: 2 IQ: 0, IPC: 0.0010
EPOCH ENDS
EPOCH STARTS
TH0 ROB: 4 LSQ: 3 IQ: 0 IPC: 0.0009
TH1 ROB: 106 LSQ: 87 IQ: 96, IPC: 2.1939
TH2 ROB: 4 LSQ: 2 IQ: 0, IPC: 0.0004
TH3 ROB: 4 LSQ: 2 IQ: 0, IPC: 0.0010
EPOCH ENDS
EPOCH STARTS
TH0 ROB: 4 LSQ: 3 IQ: 0 IPC: 0.0009
TH1 ROB: 105 LSQ: 87 IQ: 96, IPC: 2.1939
TH2 ROB: 4 LSQ: 2 IQ: 0, IPC: 0.0004
TH3 ROB: 4 LSQ: 2 IQ: 0, IPC: 0.0010
EPOCH ENDS
EPOCH STARTS
TH0 ROB: 4 LSQ: 3 IQ: 0 IPC: 0.0009
TH1 ROB: 105 LSQ: 86 IQ: 96, IPC: 2.1940
TH2 ROB: 4 LSQ: 2 IQ: 0, IPC: 0.0004
TH3 ROB: 4 LSQ: 2 IQ: 0, IPC: 0.0010
EPOCH ENDS
EPOCH STARTS
TH0 ROB: 4 LSQ: 3 IQ: 0 IPC: 0.0009
TH1 ROB: 105 LSQ: 86 IQ: 96, IPC: 2.1940
TH2 ROB: 4 LSQ: 2 IQ: 0, IPC: 0.0004
TH3 ROB: 4 LSQ: 2 IQ: 0, IPC: 0.0010
EPOCH ENDS
EPOCH STARTS
TH0 ROB: 4 LSQ: 3 IQ: 0 IPC: 0.0009
TH1 ROB: 105 LSQ: 86 IQ: 96, IPC: 2.1940
TH2 ROB: 4 LSQ: 2 IQ: 0, IPC: 0.0004
TH3 ROB: 4 LSQ: 2 IQ: 0, IPC: 0.0010
EPOCH ENDS
EPOCH STARTS
TH0 ROB: 4 LSQ: 3 IQ: 0 IPC: 0.0009
TH1 ROB: 105 LSQ: 86 IQ: 96, IPC: 2.1940
TH2 ROB: 4 LSQ: 2 IQ: 0, IPC: 0.0004
TH3 ROB: 4 LSQ: 2 IQ: 0, IPC: 0.0010
EPOCH ENDS
EPOCH STARTS
TH0 ROB: 4 LSQ: 3 IQ: 0 IPC: 0.0009
TH1 ROB: 105 LSQ: 87 IQ: 96, IPC: 2.1940
TH2 ROB: 4 LSQ: 2 IQ: 0, IPC: 0.0004
TH3 ROB: 4 LSQ: 2 IQ: 0, IPC: 0.0010
EPOCH ENDS
EPOCH STARTS
TH0 ROB: 4 LSQ: 3 IQ: 0 IPC: 0.0009
TH1 ROB: 105 LSQ: 86 IQ: 96, IPC: 2.1940
TH2 ROB: 4 LSQ: 2 IQ: 0, IPC: 0.0004
TH3 ROB: 4 LSQ: 2 IQ: 0, IPC: 0.0010
EPOCH ENDS
EPOCH STARTS
TH0 ROB: 4 LSQ: 3 IQ: 0 IPC: 0.0009
TH1 ROB: 105 LSQ: 86 IQ: 96, IPC: 2.1940
TH2 ROB: 4 LSQ: 2 IQ: 0, IPC: 0.0004
TH3 ROB: 4 LSQ: 2 IQ: 0, IPC: 0.0010
EPOCH ENDS
EPOCH STARTS
TH0 ROB: 4 LSQ: 3 IQ: 0 IPC: 0.0009
TH1 ROB: 105 LSQ: 86 IQ: 96, IPC: 2.1940
TH2 ROB: 4 LSQ: 2 IQ: 0, IPC: 0.0004
TH3 ROB: 4 LSQ: 2 IQ: 0, IPC: 0.0010
EPOCH ENDS
EPOCH STARTS
TH0 ROB: 4 LSQ: 3 IQ: 0 IPC: 0.0009
TH1 ROB: 105 LSQ: 87 IQ: 96, IPC: 2.1940
TH2 ROB: 4 LSQ: 2 IQ: 0, IPC: 0.0004
TH3 ROB: 4 LSQ: 2 IQ: 0, IPC: 0.0010
EPOCH ENDS
EPOCH STARTS
TH0 ROB: 4 LSQ: 3 IQ: 0 IPC: 0.0009
TH1 ROB: 105 LSQ: 88 IQ: 96, IPC: 2.1940
TH2 ROB: 4 LSQ: 2 IQ: 0, IPC: 0.0004
TH3 ROB: 4 LSQ: 2 IQ: 0, IPC: 0.0010
EPOCH ENDS
EPOCH STARTS
TH0 ROB: 4 LSQ: 3 IQ: 0 IPC: 0.0009
TH1 ROB: 104 LSQ: 85 IQ: 96, IPC: 2.1940
TH2 ROB: 4 LSQ: 2 IQ: 0, IPC: 0.0004
TH3 ROB: 4 LSQ: 2 IQ: 0, IPC: 0.0010
EPOCH ENDS
EPOCH STARTS
TH0 ROB: 4 LSQ: 3 IQ: 0 IPC: 0.0009
TH1 ROB: 104 LSQ: 85 IQ: 96, IPC: 2.1940
TH2 ROB: 4 LSQ: 2 IQ: 0, IPC: 0.0004
TH3 ROB: 4 LSQ: 2 IQ: 0, IPC: 0.0010
EPOCH ENDS
EPOCH STARTS
TH0 ROB: 4 LSQ: 3 IQ: 0 IPC: 0.0009
TH1 ROB: 105 LSQ: 86 IQ: 96, IPC: 2.1940
TH2 ROB: 4 LSQ: 2 IQ: 0, IPC: 0.0004
TH3 ROB: 4 LSQ: 2 IQ: 0, IPC: 0.0010
EPOCH ENDS
EPOCH STARTS
TH0 ROB: 4 LSQ: 3 IQ: 0 IPC: 0.0009
TH1 ROB: 105 LSQ: 87 IQ: 96, IPC: 2.1940
TH2 ROB: 4 LSQ: 2 IQ: 0, IPC: 0.0004
TH3 ROB: 4 LSQ: 2 IQ: 0, IPC: 0.0010
EPOCH ENDS
EPOCH STARTS
TH0 ROB: 4 LSQ: 3 IQ: 0 IPC: 0.0009
TH1 ROB: 106 LSQ: 87 IQ: 96, IPC: 2.1940
TH2 ROB: 4 LSQ: 2 IQ: 0, IPC: 0.0004
TH3 ROB: 4 LSQ: 2 IQ: 0, IPC: 0.0010
EPOCH ENDS
EPOCH STARTS
TH0 ROB: 4 LSQ: 3 IQ: 0 IPC: 0.0009
TH1 ROB: 104 LSQ: 85 IQ: 96, IPC: 2.1941
TH2 ROB: 4 LSQ: 2 IQ: 0, IPC: 0.0004
TH3 ROB: 4 LSQ: 2 IQ: 0, IPC: 0.0009
EPOCH ENDS
EPOCH STARTS
TH0 ROB: 4 LSQ: 3 IQ: 0 IPC: 0.0009
TH1 ROB: 104 LSQ: 85 IQ: 96, IPC: 2.1941
TH2 ROB: 4 LSQ: 2 IQ: 0, IPC: 0.0004
TH3 ROB: 4 LSQ: 2 IQ: 0, IPC: 0.0009
EPOCH ENDS
EPOCH STARTS
TH0 ROB: 4 LSQ: 3 IQ: 0 IPC: 0.0009
TH1 ROB: 104 LSQ: 85 IQ: 96, IPC: 2.1941
TH2 ROB: 4 LSQ: 2 IQ: 0, IPC: 0.0004
TH3 ROB: 4 LSQ: 2 IQ: 0, IPC: 0.0009
EPOCH ENDS
EPOCH STARTS
TH0 ROB: 4 LSQ: 3 IQ: 0 IPC: 0.0009
TH1 ROB: 105 LSQ: 87 IQ: 96, IPC: 2.1941
TH2 ROB: 4 LSQ: 2 IQ: 0, IPC: 0.0004
TH3 ROB: 4 LSQ: 2 IQ: 0, IPC: 0.0009
EPOCH ENDS
EPOCH STARTS
TH0 ROB: 4 LSQ: 3 IQ: 0 IPC: 0.0009
TH1 ROB: 105 LSQ: 86 IQ: 96, IPC: 2.1941
TH2 ROB: 4 LSQ: 2 IQ: 0, IPC: 0.0004
TH3 ROB: 4 LSQ: 2 IQ: 0, IPC: 0.0009
EPOCH ENDS
EPOCH STARTS
TH0 ROB: 4 LSQ: 3 IQ: 0 IPC: 0.0008
TH1 ROB: 104 LSQ: 85 IQ: 96, IPC: 2.1941
TH2 ROB: 4 LSQ: 2 IQ: 0, IPC: 0.0004
TH3 ROB: 4 LSQ: 2 IQ: 0, IPC: 0.0009
EPOCH ENDS
EPOCH STARTS
TH0 ROB: 4 LSQ: 3 IQ: 0 IPC: 0.0008
TH1 ROB: 104 LSQ: 85 IQ: 96, IPC: 2.1941
TH2 ROB: 4 LSQ: 2 IQ: 0, IPC: 0.0004
TH3 ROB: 4 LSQ: 2 IQ: 0, IPC: 0.0009
EPOCH ENDS
EPOCH STARTS
TH0 ROB: 4 LSQ: 3 IQ: 0 IPC: 0.0008
TH1 ROB: 104 LSQ: 87 IQ: 96, IPC: 2.1941
TH2 ROB: 4 LSQ: 2 IQ: 0, IPC: 0.0004
TH3 ROB: 4 LSQ: 2 IQ: 0, IPC: 0.0009
EPOCH ENDS
EPOCH STARTS
TH0 ROB: 4 LSQ: 3 IQ: 0 IPC: 0.0008
TH1 ROB: 105 LSQ: 87 IQ: 96, IPC: 2.1941
TH2 ROB: 4 LSQ: 2 IQ: 0, IPC: 0.0004
TH3 ROB: 4 LSQ: 2 IQ: 0, IPC: 0.0009
EPOCH ENDS
EPOCH STARTS
TH0 ROB: 4 LSQ: 3 IQ: 0 IPC: 0.0008
TH1 ROB: 105 LSQ: 85 IQ: 96, IPC: 2.1941
TH2 ROB: 4 LSQ: 2 IQ: 0, IPC: 0.0004
TH3 ROB: 4 LSQ: 2 IQ: 0, IPC: 0.0009
EPOCH ENDS
EPOCH STARTS
TH0 ROB: 4 LSQ: 3 IQ: 0 IPC: 0.0008
TH1 ROB: 104 LSQ: 85 IQ: 96, IPC: 2.1941
TH2 ROB: 4 LSQ: 2 IQ: 0, IPC: 0.0004
TH3 ROB: 4 LSQ: 2 IQ: 0, IPC: 0.0009
EPOCH ENDS
EPOCH STARTS
TH0 ROB: 4 LSQ: 3 IQ: 0 IPC: 0.0008
TH1 ROB: 104 LSQ: 85 IQ: 96, IPC: 2.1941
TH2 ROB: 4 LSQ: 2 IQ: 0, IPC: 0.0004
TH3 ROB: 4 LSQ: 2 IQ: 0, IPC: 0.0009
EPOCH ENDS
EPOCH STARTS
TH0 ROB: 4 LSQ: 3 IQ: 0 IPC: 0.0008
TH1 ROB: 104 LSQ: 86 IQ: 96, IPC: 2.1941
TH2 ROB: 4 LSQ: 2 IQ: 0, IPC: 0.0004
TH3 ROB: 4 LSQ: 2 IQ: 0, IPC: 0.0009
EPOCH ENDS
EPOCH STARTS
TH0 ROB: 4 LSQ: 3 IQ: 0 IPC: 0.0008
TH1 ROB: 107 LSQ: 88 IQ: 96, IPC: 2.1941
TH2 ROB: 4 LSQ: 2 IQ: 0, IPC: 0.0004
TH3 ROB: 4 LSQ: 2 IQ: 0, IPC: 0.0009
EPOCH ENDS
EPOCH STARTS
TH0 ROB: 4 LSQ: 3 IQ: 0 IPC: 0.0008
TH1 ROB: 105 LSQ: 86 IQ: 96, IPC: 2.1941
TH2 ROB: 4 LSQ: 2 IQ: 0, IPC: 0.0004
TH3 ROB: 4 LSQ: 2 IQ: 0, IPC: 0.0009
EPOCH ENDS
EPOCH STARTS
TH0 ROB: 4 LSQ: 3 IQ: 0 IPC: 0.0008
TH1 ROB: 105 LSQ: 85 IQ: 96, IPC: 2.1941
TH2 ROB: 4 LSQ: 2 IQ: 0, IPC: 0.0004
TH3 ROB: 4 LSQ: 2 IQ: 0, IPC: 0.0009
EPOCH ENDS
EPOCH STARTS
TH0 ROB: 4 LSQ: 3 IQ: 0 IPC: 0.0008
TH1 ROB: 104 LSQ: 85 IQ: 96, IPC: 2.1942
TH2 ROB: 4 LSQ: 2 IQ: 0, IPC: 0.0004
TH3 ROB: 4 LSQ: 2 IQ: 0, IPC: 0.0009
EPOCH ENDS
EPOCH STARTS
TH0 ROB: 4 LSQ: 3 IQ: 0 IPC: 0.0008
TH1 ROB: 105 LSQ: 87 IQ: 96, IPC: 2.1942
TH2 ROB: 4 LSQ: 2 IQ: 0, IPC: 0.0004
TH3 ROB: 4 LSQ: 2 IQ: 0, IPC: 0.0009
EPOCH ENDS
EPOCH STARTS
TH0 ROB: 4 LSQ: 3 IQ: 0 IPC: 0.0008
TH1 ROB: 105 LSQ: 86 IQ: 96, IPC: 2.1942
TH2 ROB: 4 LSQ: 2 IQ: 0, IPC: 0.0004
TH3 ROB: 4 LSQ: 2 IQ: 0, IPC: 0.0009
EPOCH ENDS
EPOCH STARTS
TH0 ROB: 4 LSQ: 3 IQ: 0 IPC: 0.0008
TH1 ROB: 104 LSQ: 85 IQ: 96, IPC: 2.1942
TH2 ROB: 4 LSQ: 2 IQ: 0, IPC: 0.0004
TH3 ROB: 4 LSQ: 2 IQ: 0, IPC: 0.0009
EPOCH ENDS
EPOCH STARTS
TH0 ROB: 4 LSQ: 3 IQ: 0 IPC: 0.0008
TH1 ROB: 105 LSQ: 86 IQ: 96, IPC: 2.1942
TH2 ROB: 4 LSQ: 2 IQ: 0, IPC: 0.0004
TH3 ROB: 4 LSQ: 2 IQ: 0, IPC: 0.0009
EPOCH ENDS
EPOCH STARTS
TH0 ROB: 4 LSQ: 3 IQ: 0 IPC: 0.0008
TH1 ROB: 105 LSQ: 87 IQ: 96, IPC: 2.1942
TH2 ROB: 4 LSQ: 2 IQ: 0, IPC: 0.0004
TH3 ROB: 4 LSQ: 2 IQ: 0, IPC: 0.0009
EPOCH ENDS
EPOCH STARTS
TH0 ROB: 4 LSQ: 3 IQ: 0 IPC: 0.0008
TH1 ROB: 105 LSQ: 87 IQ: 96, IPC: 2.1942
TH2 ROB: 4 LSQ: 2 IQ: 0, IPC: 0.0004
TH3 ROB: 4 LSQ: 2 IQ: 0, IPC: 0.0009
EPOCH ENDS
EPOCH STARTS
TH0 ROB: 4 LSQ: 3 IQ: 0 IPC: 0.0008
TH1 ROB: 106 LSQ: 87 IQ: 96, IPC: 2.1942
TH2 ROB: 4 LSQ: 2 IQ: 0, IPC: 0.0004
TH3 ROB: 4 LSQ: 2 IQ: 0, IPC: 0.0009
EPOCH ENDS
EPOCH STARTS
TH0 ROB: 4 LSQ: 3 IQ: 0 IPC: 0.0008
TH1 ROB: 104 LSQ: 85 IQ: 96, IPC: 2.1942
TH2 ROB: 4 LSQ: 2 IQ: 0, IPC: 0.0004
TH3 ROB: 4 LSQ: 2 IQ: 0, IPC: 0.0009
EPOCH ENDS
EPOCH STARTS
TH0 ROB: 4 LSQ: 3 IQ: 0 IPC: 0.0008
TH1 ROB: 104 LSQ: 85 IQ: 96, IPC: 2.1942
TH2 ROB: 4 LSQ: 2 IQ: 0, IPC: 0.0004
TH3 ROB: 4 LSQ: 2 IQ: 0, IPC: 0.0009
EPOCH ENDS
EPOCH STARTS
TH0 ROB: 4 LSQ: 3 IQ: 0 IPC: 0.0008
TH1 ROB: 105 LSQ: 87 IQ: 96, IPC: 2.1942
TH2 ROB: 4 LSQ: 2 IQ: 0, IPC: 0.0004
TH3 ROB: 4 LSQ: 2 IQ: 0, IPC: 0.0009
EPOCH ENDS
EPOCH STARTS
TH0 ROB: 4 LSQ: 3 IQ: 0 IPC: 0.0008
TH1 ROB: 106 LSQ: 87 IQ: 96, IPC: 2.1942
TH2 ROB: 4 LSQ: 2 IQ: 0, IPC: 0.0004
TH3 ROB: 4 LSQ: 2 IQ: 0, IPC: 0.0009
EPOCH ENDS
EPOCH STARTS
TH0 ROB: 4 LSQ: 3 IQ: 0 IPC: 0.0008
TH1 ROB: 106 LSQ: 87 IQ: 96, IPC: 2.1942
TH2 ROB: 4 LSQ: 2 IQ: 0, IPC: 0.0004
TH3 ROB: 4 LSQ: 2 IQ: 0, IPC: 0.0009
EPOCH ENDS
EPOCH STARTS
TH0 ROB: 4 LSQ: 3 IQ: 0 IPC: 0.0008
TH1 ROB: 106 LSQ: 87 IQ: 96, IPC: 2.1942
TH2 ROB: 4 LSQ: 2 IQ: 0, IPC: 0.0004
TH3 ROB: 4 LSQ: 2 IQ: 0, IPC: 0.0009
EPOCH ENDS
EPOCH STARTS
TH0 ROB: 4 LSQ: 3 IQ: 0 IPC: 0.0008
TH1 ROB: 104 LSQ: 86 IQ: 96, IPC: 2.1942
TH2 ROB: 4 LSQ: 2 IQ: 0, IPC: 0.0004
TH3 ROB: 4 LSQ: 2 IQ: 0, IPC: 0.0009
EPOCH ENDS
EPOCH STARTS
TH0 ROB: 4 LSQ: 3 IQ: 0 IPC: 0.0008
TH1 ROB: 104 LSQ: 87 IQ: 96, IPC: 2.1942
TH2 ROB: 4 LSQ: 2 IQ: 0, IPC: 0.0004
TH3 ROB: 4 LSQ: 2 IQ: 0, IPC: 0.0009
EPOCH ENDS
EPOCH STARTS
TH0 ROB: 4 LSQ: 3 IQ: 0 IPC: 0.0008
TH1 ROB: 105 LSQ: 86 IQ: 96, IPC: 2.1942
TH2 ROB: 4 LSQ: 2 IQ: 0, IPC: 0.0004
TH3 ROB: 4 LSQ: 2 IQ: 0, IPC: 0.0009
EPOCH ENDS
EPOCH STARTS
TH0 ROB: 4 LSQ: 3 IQ: 0 IPC: 0.0008
TH1 ROB: 105 LSQ: 86 IQ: 96, IPC: 2.1942
TH2 ROB: 4 LSQ: 2 IQ: 0, IPC: 0.0004
TH3 ROB: 4 LSQ: 2 IQ: 0, IPC: 0.0009
EPOCH ENDS
EPOCH STARTS
TH0 ROB: 4 LSQ: 3 IQ: 0 IPC: 0.0008
TH1 ROB: 106 LSQ: 87 IQ: 96, IPC: 2.1942
TH2 ROB: 4 LSQ: 2 IQ: 0, IPC: 0.0004
TH3 ROB: 4 LSQ: 2 IQ: 0, IPC: 0.0009
EPOCH ENDS
EPOCH STARTS
TH0 ROB: 4 LSQ: 3 IQ: 0 IPC: 0.0008
TH1 ROB: 105 LSQ: 87 IQ: 96, IPC: 2.1943
TH2 ROB: 4 LSQ: 2 IQ: 0, IPC: 0.0004
TH3 ROB: 4 LSQ: 2 IQ: 0, IPC: 0.0009
EPOCH ENDS
EPOCH STARTS
TH0 ROB: 4 LSQ: 3 IQ: 0 IPC: 0.0008
TH1 ROB: 105 LSQ: 86 IQ: 96, IPC: 2.1943
TH2 ROB: 4 LSQ: 2 IQ: 0, IPC: 0.0004
TH3 ROB: 4 LSQ: 2 IQ: 0, IPC: 0.0009
EPOCH ENDS
EPOCH STARTS
TH0 ROB: 4 LSQ: 3 IQ: 0 IPC: 0.0008
TH1 ROB: 105 LSQ: 86 IQ: 96, IPC: 2.1943
TH2 ROB: 4 LSQ: 2 IQ: 0, IPC: 0.0004
TH3 ROB: 4 LSQ: 2 IQ: 0, IPC: 0.0009
EPOCH ENDS
EPOCH STARTS
TH0 ROB: 4 LSQ: 3 IQ: 0 IPC: 0.0008
TH1 ROB: 105 LSQ: 86 IQ: 96, IPC: 2.1943
TH2 ROB: 4 LSQ: 2 IQ: 0, IPC: 0.0004
TH3 ROB: 4 LSQ: 2 IQ: 0, IPC: 0.0008
EPOCH ENDS
EPOCH STARTS
TH0 ROB: 4 LSQ: 3 IQ: 0 IPC: 0.0008
TH1 ROB: 105 LSQ: 86 IQ: 96, IPC: 2.1943
TH2 ROB: 4 LSQ: 2 IQ: 0, IPC: 0.0004
TH3 ROB: 4 LSQ: 2 IQ: 0, IPC: 0.0008
EPOCH ENDS
EPOCH STARTS
TH0 ROB: 4 LSQ: 3 IQ: 0 IPC: 0.0008
TH1 ROB: 105 LSQ: 87 IQ: 96, IPC: 2.1943
TH2 ROB: 4 LSQ: 2 IQ: 0, IPC: 0.0004
TH3 ROB: 4 LSQ: 2 IQ: 0, IPC: 0.0008
EPOCH ENDS
EPOCH STARTS
TH0 ROB: 4 LSQ: 3 IQ: 0 IPC: 0.0008
TH1 ROB: 105 LSQ: 86 IQ: 96, IPC: 2.1943
TH2 ROB: 4 LSQ: 2 IQ: 0, IPC: 0.0004
TH3 ROB: 4 LSQ: 2 IQ: 0, IPC: 0.0008
EPOCH ENDS
EPOCH STARTS
TH0 ROB: 4 LSQ: 3 IQ: 0 IPC: 0.0008
TH1 ROB: 105 LSQ: 86 IQ: 96, IPC: 2.1943
TH2 ROB: 4 LSQ: 2 IQ: 0, IPC: 0.0004
TH3 ROB: 4 LSQ: 2 IQ: 0, IPC: 0.0008
EPOCH ENDS
EPOCH STARTS
TH0 ROB: 4 LSQ: 3 IQ: 0 IPC: 0.0008
TH1 ROB: 105 LSQ: 86 IQ: 96, IPC: 2.1943
TH2 ROB: 4 LSQ: 2 IQ: 0, IPC: 0.0004
TH3 ROB: 4 LSQ: 2 IQ: 0, IPC: 0.0008
EPOCH ENDS
EPOCH STARTS
TH0 ROB: 4 LSQ: 3 IQ: 0 IPC: 0.0008
TH1 ROB: 105 LSQ: 87 IQ: 96, IPC: 2.1943
TH2 ROB: 4 LSQ: 2 IQ: 0, IPC: 0.0004
TH3 ROB: 4 LSQ: 2 IQ: 0, IPC: 0.0008
EPOCH ENDS
EPOCH STARTS
TH0 ROB: 4 LSQ: 3 IQ: 0 IPC: 0.0008
TH1 ROB: 105 LSQ: 88 IQ: 96, IPC: 2.1943
TH2 ROB: 4 LSQ: 2 IQ: 0, IPC: 0.0004
TH3 ROB: 4 LSQ: 2 IQ: 0, IPC: 0.0008
EPOCH ENDS
EPOCH STARTS
TH0 ROB: 4 LSQ: 3 IQ: 0 IPC: 0.0008
TH1 ROB: 104 LSQ: 85 IQ: 96, IPC: 2.1943
TH2 ROB: 4 LSQ: 2 IQ: 0, IPC: 0.0004
TH3 ROB: 4 LSQ: 2 IQ: 0, IPC: 0.0008
EPOCH ENDS
EPOCH STARTS
TH0 ROB: 4 LSQ: 3 IQ: 0 IPC: 0.0008
TH1 ROB: 104 LSQ: 85 IQ: 96, IPC: 2.1943
TH2 ROB: 4 LSQ: 2 IQ: 0, IPC: 0.0004
TH3 ROB: 4 LSQ: 2 IQ: 0, IPC: 0.0008
EPOCH ENDS
EPOCH STARTS
TH0 ROB: 4 LSQ: 3 IQ: 0 IPC: 0.0007
TH1 ROB: 105 LSQ: 86 IQ: 96, IPC: 2.1943
TH2 ROB: 4 LSQ: 2 IQ: 0, IPC: 0.0004
TH3 ROB: 4 LSQ: 2 IQ: 0, IPC: 0.0008
EPOCH ENDS
EPOCH STARTS
TH0 ROB: 4 LSQ: 3 IQ: 0 IPC: 0.0007
TH1 ROB: 105 LSQ: 87 IQ: 96, IPC: 2.1943
TH2 ROB: 4 LSQ: 2 IQ: 0, IPC: 0.0004
TH3 ROB: 4 LSQ: 2 IQ: 0, IPC: 0.0008
EPOCH ENDS
EPOCH STARTS
TH0 ROB: 4 LSQ: 3 IQ: 0 IPC: 0.0007
TH1 ROB: 106 LSQ: 87 IQ: 96, IPC: 2.1943
TH2 ROB: 4 LSQ: 2 IQ: 0, IPC: 0.0004
TH3 ROB: 4 LSQ: 2 IQ: 0, IPC: 0.0008
EPOCH ENDS
EPOCH STARTS
TH0 ROB: 4 LSQ: 3 IQ: 0 IPC: 0.0007
TH1 ROB: 104 LSQ: 85 IQ: 96, IPC: 2.1943
TH2 ROB: 4 LSQ: 2 IQ: 0, IPC: 0.0004
TH3 ROB: 4 LSQ: 2 IQ: 0, IPC: 0.0008
EPOCH ENDS
EPOCH STARTS
TH0 ROB: 4 LSQ: 3 IQ: 0 IPC: 0.0007
TH1 ROB: 104 LSQ: 85 IQ: 96, IPC: 2.1943
TH2 ROB: 4 LSQ: 2 IQ: 0, IPC: 0.0004
TH3 ROB: 4 LSQ: 2 IQ: 0, IPC: 0.0008
EPOCH ENDS
EPOCH STARTS
TH0 ROB: 4 LSQ: 3 IQ: 0 IPC: 0.0007
TH1 ROB: 104 LSQ: 85 IQ: 96, IPC: 2.1943
TH2 ROB: 4 LSQ: 2 IQ: 0, IPC: 0.0004
TH3 ROB: 4 LSQ: 2 IQ: 0, IPC: 0.0008
EPOCH ENDS
EPOCH STARTS
TH0 ROB: 4 LSQ: 3 IQ: 0 IPC: 0.0007
TH1 ROB: 105 LSQ: 87 IQ: 96, IPC: 2.1943
TH2 ROB: 4 LSQ: 2 IQ: 0, IPC: 0.0004
TH3 ROB: 4 LSQ: 2 IQ: 0, IPC: 0.0008
EPOCH ENDS
EPOCH STARTS
TH0 ROB: 4 LSQ: 3 IQ: 0 IPC: 0.0007
TH1 ROB: 105 LSQ: 86 IQ: 96, IPC: 2.1944
TH2 ROB: 4 LSQ: 2 IQ: 0, IPC: 0.0004
TH3 ROB: 4 LSQ: 2 IQ: 0, IPC: 0.0008
EPOCH ENDS
EPOCH STARTS
TH0 ROB: 4 LSQ: 3 IQ: 0 IPC: 0.0007
TH1 ROB: 104 LSQ: 85 IQ: 96, IPC: 2.1944
TH2 ROB: 4 LSQ: 2 IQ: 0, IPC: 0.0004
TH3 ROB: 4 LSQ: 2 IQ: 0, IPC: 0.0008
EPOCH ENDS
EPOCH STARTS
TH0 ROB: 4 LSQ: 3 IQ: 0 IPC: 0.0007
TH1 ROB: 104 LSQ: 85 IQ: 96, IPC: 2.1944
TH2 ROB: 4 LSQ: 2 IQ: 0, IPC: 0.0004
TH3 ROB: 4 LSQ: 2 IQ: 0, IPC: 0.0008
EPOCH ENDS
EPOCH STARTS
TH0 ROB: 4 LSQ: 3 IQ: 0 IPC: 0.0007
TH1 ROB: 104 LSQ: 87 IQ: 96, IPC: 2.1944
TH2 ROB: 4 LSQ: 2 IQ: 0, IPC: 0.0004
TH3 ROB: 4 LSQ: 2 IQ: 0, IPC: 0.0008
EPOCH ENDS
EPOCH STARTS
TH0 ROB: 4 LSQ: 3 IQ: 0 IPC: 0.0007
TH1 ROB: 105 LSQ: 87 IQ: 96, IPC: 2.1944
TH2 ROB: 4 LSQ: 2 IQ: 0, IPC: 0.0004
TH3 ROB: 4 LSQ: 2 IQ: 0, IPC: 0.0008
EPOCH ENDS
EPOCH STARTS
TH0 ROB: 4 LSQ: 3 IQ: 0 IPC: 0.0007
TH1 ROB: 105 LSQ: 85 IQ: 96, IPC: 2.1944
TH2 ROB: 4 LSQ: 2 IQ: 0, IPC: 0.0004
TH3 ROB: 4 LSQ: 2 IQ: 0, IPC: 0.0008
EPOCH ENDS
EPOCH STARTS
TH0 ROB: 4 LSQ: 3 IQ: 0 IPC: 0.0007
TH1 ROB: 104 LSQ: 85 IQ: 96, IPC: 2.1944
TH2 ROB: 4 LSQ: 2 IQ: 0, IPC: 0.0004
TH3 ROB: 4 LSQ: 2 IQ: 0, IPC: 0.0008
EPOCH ENDS
EPOCH STARTS
TH0 ROB: 4 LSQ: 3 IQ: 0 IPC: 0.0007
TH1 ROB: 104 LSQ: 85 IQ: 96, IPC: 2.1944
TH2 ROB: 4 LSQ: 2 IQ: 0, IPC: 0.0004
TH3 ROB: 4 LSQ: 2 IQ: 0, IPC: 0.0008
EPOCH ENDS
EPOCH STARTS
TH0 ROB: 4 LSQ: 3 IQ: 0 IPC: 0.0007
TH1 ROB: 104 LSQ: 86 IQ: 96, IPC: 2.1944
TH2 ROB: 4 LSQ: 2 IQ: 0, IPC: 0.0004
TH3 ROB: 4 LSQ: 2 IQ: 0, IPC: 0.0008
EPOCH ENDS
EPOCH STARTS
TH0 ROB: 4 LSQ: 3 IQ: 0 IPC: 0.0007
TH1 ROB: 107 LSQ: 88 IQ: 96, IPC: 2.1944
TH2 ROB: 4 LSQ: 2 IQ: 0, IPC: 0.0004
TH3 ROB: 4 LSQ: 2 IQ: 0, IPC: 0.0008
EPOCH ENDS
EPOCH STARTS
TH0 ROB: 4 LSQ: 3 IQ: 0 IPC: 0.0007
TH1 ROB: 105 LSQ: 86 IQ: 96, IPC: 2.1944
TH2 ROB: 4 LSQ: 2 IQ: 0, IPC: 0.0004
TH3 ROB: 4 LSQ: 2 IQ: 0, IPC: 0.0008
EPOCH ENDS
EPOCH STARTS
TH0 ROB: 4 LSQ: 3 IQ: 0 IPC: 0.0007
TH1 ROB: 105 LSQ: 85 IQ: 96, IPC: 2.1944
TH2 ROB: 4 LSQ: 2 IQ: 0, IPC: 0.0003
TH3 ROB: 4 LSQ: 2 IQ: 0, IPC: 0.0008
EPOCH ENDS
EPOCH STARTS
TH0 ROB: 4 LSQ: 3 IQ: 0 IPC: 0.0007
TH1 ROB: 104 LSQ: 85 IQ: 96, IPC: 2.1944
TH2 ROB: 4 LSQ: 2 IQ: 0, IPC: 0.0003
TH3 ROB: 4 LSQ: 2 IQ: 0, IPC: 0.0008
EPOCH ENDS
EPOCH STARTS
TH0 ROB: 4 LSQ: 3 IQ: 0 IPC: 0.0007
TH1 ROB: 105 LSQ: 87 IQ: 96, IPC: 2.1944
TH2 ROB: 4 LSQ: 2 IQ: 0, IPC: 0.0003
TH3 ROB: 4 LSQ: 2 IQ: 0, IPC: 0.0008
EPOCH ENDS
EPOCH STARTS
TH0 ROB: 4 LSQ: 3 IQ: 0 IPC: 0.0007
TH1 ROB: 105 LSQ: 86 IQ: 96, IPC: 2.1944
TH2 ROB: 4 LSQ: 2 IQ: 0, IPC: 0.0003
TH3 ROB: 4 LSQ: 2 IQ: 0, IPC: 0.0008
EPOCH ENDS
EPOCH STARTS
TH0 ROB: 4 LSQ: 3 IQ: 0 IPC: 0.0007
TH1 ROB: 104 LSQ: 85 IQ: 96, IPC: 2.1944
TH2 ROB: 4 LSQ: 2 IQ: 0, IPC: 0.0003
TH3 ROB: 4 LSQ: 2 IQ: 0, IPC: 0.0008
EPOCH ENDS
EPOCH STARTS
TH0 ROB: 4 LSQ: 3 IQ: 0 IPC: 0.0007
TH1 ROB: 105 LSQ: 86 IQ: 96, IPC: 2.1944
TH2 ROB: 4 LSQ: 2 IQ: 0, IPC: 0.0003
TH3 ROB: 4 LSQ: 2 IQ: 0, IPC: 0.0008
EPOCH ENDS
EPOCH STARTS
TH0 ROB: 4 LSQ: 3 IQ: 0 IPC: 0.0007
TH1 ROB: 105 LSQ: 87 IQ: 96, IPC: 2.1944
TH2 ROB: 4 LSQ: 2 IQ: 0, IPC: 0.0003
TH3 ROB: 4 LSQ: 2 IQ: 0, IPC: 0.0008
EPOCH ENDS
EPOCH STARTS
TH0 ROB: 4 LSQ: 3 IQ: 0 IPC: 0.0007
TH1 ROB: 105 LSQ: 87 IQ: 96, IPC: 2.1944
TH2 ROB: 4 LSQ: 2 IQ: 0, IPC: 0.0003
TH3 ROB: 4 LSQ: 2 IQ: 0, IPC: 0.0008
[...]
Thread_3_cpred_bimod.retstack_pops            0 # total number of address popped off of ret-addr stack
Thread_3_cpred_bimod.used_ras.PP            0 # total number of RAS predictions used
Thread_3_cpred_bimod.ras_hits.PP            0 # total number of RAS hits
Thread_3_cpred_bimod.ras_rate.PP <error: divide by zero> # RAS prediction rate (i.e., RAS hits/used RAS)
il1.accesses              605917298 # total number of accesses
il1.hits                  605917102 # total number of hits
il1.misses                      196 # total number of misses
il1.replacements                196 # total number of replacements
il1.writebacks                    0 # total number of writebacks
il1.invalidations                 0 # total number of invalidations
il1.miss_rate                0.0000 # miss rate (i.e., misses/ref)
il1.repl_rate                0.0000 # replacement rate (i.e., repls/ref)
il1.wb_rate                  0.0000 # writeback rate (i.e., wrbks/ref)
il1.inv_rate                 0.0000 # invalidation rate (i.e., invs/ref)
dl1.accesses              300492851 # total number of accesses
dl1.hits                  290639872 # total number of hits
dl1.misses                  9852979 # total number of misses
dl1.replacements            9852979 # total number of replacements
dl1.writebacks              9852423 # total number of writebacks
dl1.invalidations                 0 # total number of invalidations
dl1.miss_rate                0.0328 # miss rate (i.e., misses/ref)
dl1.repl_rate                0.0328 # replacement rate (i.e., repls/ref)
dl1.wb_rate                  0.0328 # writeback rate (i.e., wrbks/ref)
dl1.inv_rate                 0.0000 # invalidation rate (i.e., invs/ref)
ul2.accesses               19705598 # total number of accesses
ul2.hits                   14775387 # total number of hits
ul2.misses                  4930211 # total number of misses
ul2.replacements            4930211 # total number of replacements
ul2.writebacks              4926579 # total number of writebacks
ul2.invalidations                 0 # total number of invalidations
ul2.miss_rate                0.2502 # miss rate (i.e., misses/ref)
ul2.repl_rate                0.2502 # replacement rate (i.e., repls/ref)
ul2.wb_rate                  0.2500 # writeback rate (i.e., wrbks/ref)
ul2.inv_rate                 0.0000 # invalidation rate (i.e., invs/ref)
itlb.accesses             605917298 # total number of accesses
itlb.hits                 605917297 # total number of hits
itlb.misses                       1 # total number of misses
itlb.replacements                 1 # total number of replacements
itlb.writebacks                   0 # total number of writebacks
itlb.invalidations                0 # total number of invalidations
itlb.miss_rate               0.0000 # miss rate (i.e., misses/ref)
itlb.repl_rate               0.0000 # replacement rate (i.e., repls/ref)
itlb.wb_rate                 0.0000 # writeback rate (i.e., wrbks/ref)
itlb.inv_rate                0.0000 # invalidation rate (i.e., invs/ref)
dtlb.accesses             394079365 # total number of accesses
dtlb.hits                 394002090 # total number of hits
dtlb.misses                   77275 # total number of misses
dtlb.replacements             77275 # total number of replacements
dtlb.writebacks                   0 # total number of writebacks
dtlb.invalidations                0 # total number of invalidations
dtlb.miss_rate               0.0002 # miss rate (i.e., misses/ref)
dtlb.repl_rate               0.0002 # replacement rate (i.e., repls/ref)
dtlb.wb_rate                 0.0000 # writeback rate (i.e., wrbks/ref)
dtlb.inv_rate                0.0000 # invalidation rate (i.e., invs/ref)
sim_invalid_addrs                 0 # total non-speculative bogus addresses seen (debug var)
ld_text_base           0x0120000000 # program text (code) segment base
mem->ld_text_size            401408 # program text (code) size in bytes
mem->ld_data_base      0x0140000000 # program initialized data segment base
mem->ld_data_size             70816 # program init'ed `.data' and uninit'ed `.bss' size in bytes
mem->ld_stack_base     0x011ff9b000 # program stack segment base (highest address in stack)
mem->ld_stack_size            16384 # program initial stack size
mem->ld_prog_entry     0x012000ff40 # program entry point (initial PC)
mem->ld_environ_base   0x011ff97000 # program environment base address address
mem->ld_target_big_endian            0 # target executable endian-ness, non-zero if big endian
mem_0.page_count               2861 # total number of pages allocated
mem_0.page_mem               22888k # total size of memory pages allocated
mem_0.ptab_misses              5001 # total first level page table misses
mem_0.ptab_accesses       152950500 # total page table accesses
mem_0.ptab_miss_rate         0.0000 # first level page table miss rate
ld_text_base           0x0120000000 # program text (code) segment base
mem->ld_text_size            352256 # program text (code) size in bytes
mem->ld_data_base      0x0140000000 # program initialized data segment base
mem->ld_data_size            121360 # program init'ed `.data' and uninit'ed `.bss' size in bytes
mem->ld_stack_base     0x011ff9b000 # program stack segment base (highest address in stack)
mem->ld_stack_size            16384 # program initial stack size
mem->ld_prog_entry     0x0120000300 # program entry point (initial PC)
mem->ld_environ_base   0x011ff97000 # program environment base address address
mem->ld_target_big_endian            0 # target executable endian-ness, non-zero if big endian
mem_0.page_count              41307 # total number of pages allocated
mem_0.page_mem               22888k # total size of memory pages allocated
mem_0.ptab_misses             47422 # total first level page table misses
mem_0.ptab_accesses      2239890998 # total page table accesses
mem_0.ptab_miss_rate         0.0000 # first level page table miss rate
ld_text_base           0x0120000000 # program text (code) segment base
mem->ld_text_size            974848 # program text (code) size in bytes
mem->ld_data_base      0x0140000000 # program initialized data segment base
mem->ld_data_size             79184 # program init'ed `.data' and uninit'ed `.bss' size in bytes
mem->ld_stack_base     0x011ff9b000 # program stack segment base (highest address in stack)
mem->ld_stack_size            16384 # program initial stack size
mem->ld_prog_entry     0x0120015580 # program entry point (initial PC)
mem->ld_environ_base   0x011ff97000 # program environment base address address
mem->ld_target_big_endian            0 # target executable endian-ness, non-zero if big endian
mem_0.page_count                162 # total number of pages allocated
mem_0.page_mem               22888k # total size of memory pages allocated
mem_0.ptab_misses             33123 # total first level page table misses
mem_0.ptab_accesses        72151278 # total page table accesses
mem_0.ptab_miss_rate         0.0000 # first level page table miss rate
ld_text_base           0x0120000000 # program text (code) segment base
mem->ld_text_size           2285568 # program text (code) size in bytes
mem->ld_data_base      0x0140000000 # program initialized data segment base
mem->ld_data_size            152368 # program init'ed `.data' and uninit'ed `.bss' size in bytes
mem->ld_stack_base     0x011ff9b000 # program stack segment base (highest address in stack)
mem->ld_stack_size            16384 # program initial stack size
mem->ld_prog_entry     0x01200b9a00 # program entry point (initial PC)
mem->ld_environ_base   0x011ff97000 # program environment base address address
mem->ld_target_big_endian            0 # target executable endian-ness, non-zero if big endian
mem_0.page_count                300 # total number of pages allocated
mem_0.page_mem               22888k # total size of memory pages allocated
mem_0.ptab_misses               359 # total first level page table misses
mem_0.ptab_accesses      5548981734 # total page table accesses
mem_0.ptab_miss_rate         0.0000 # first level page table miss rate
rename_power           170831330.8521 # total power usage of rename unit
bpred_power            1130781596.2667 # total power usage of bpred unit
window_power           3569047442.0555 # total power usage of instruction window
lsq_power              1992927240.4008 # total power usage of load/store queue
regfile_power          893118024.3201 # total power usage of arch. regfile
icache_power           1058450497.7872 # total power usage of icache
dcache_power           2311943843.8834 # total power usage of dcache
dcache2_power          1300033981.9295 # total power usage of dcache2
alu_power              4735293863.5147 # total power usage of alu
falu_power             3570261239.8660 # total power usage of falu
resultbus_power        2253231538.7770 # total power usage of resultbus
clock_power            7621587330.2502 # total power usage of clock
avg_rename_power             0.6833 # avg power usage of rename unit
avg_bpred_power              4.5231 # avg power usage of bpred unit
avg_window_power            14.2762 # avg power usage of instruction window
avg_lsq_power                7.9717 # avg power usage of lsq
avg_regfile_power            3.5725 # avg power usage of arch. regfile
avg_icache_power             4.2338 # avg power usage of icache
avg_dcache_power             9.2478 # avg power usage of dcache
avg_dcache2_power            5.2001 # avg power usage of dcache2
avg_alu_power               18.9412 # avg power usage of alu
avg_falu_power              14.2810 # avg power usage of falu
avg_resultbus_power          9.0129 # avg power usage of resultbus
avg_clock_power             30.4863 # avg power usage of clock
fetch_stage_power      2189232094.0540 # total power usage of fetch stage
dispatch_stage_power   170831330.8521 # total power usage of dispatch stage
issue_stage_power      16162477910.5610 # total power usage of issue stage
avg_fetch_power              8.7569 # average power of fetch unit per cycle
avg_dispatch_power           0.6833 # average power of dispatch unit per cycle
avg_issue_power             64.6499 # average power of issue unit per cycle
total_power            27037246690.0374 # total power per cycle
avg_total_power_cycle      108.1490 # average total power per cycle
avg_total_power_cycle_nofp_nod2      88.6678 # average total power per cycle
avg_total_power_insn        44.6221 # average total power per insn
avg_total_power_insn_nofp_nod2      36.5842 # average total power per insn
rename_power_cc1       170825811.6335 # total power usage of rename unit_cc1
bpred_power_cc1        445616418.7840 # total power usage of bpred unit_cc1
window_power_cc1       3940516888.3338 # total power usage of instruction window_cc1
lsq_power_cc1          1688048772.8289 # total power usage of lsq_cc1
regfile_power_cc1      836629654.2510 # total power usage of arch. regfile_cc1
icache_power_cc1       1058395547.2716 # total power usage of icache_cc1
dcache_power_cc1       1491999389.6507 # total power usage of dcache_cc1
dcache2_power_cc1      51237786.7835 # total power usage of dcache2_cc1
alu_power_cc1          1165022364.2188 # total power usage of alu_cc1
resultbus_power_cc1    2160216589.9849 # total power usage of resultbus_cc1
clock_power_cc1        5431922883.6915 # total power usage of clock_cc1
avg_rename_power_cc1         0.6833 # avg power usage of rename unit_cc1
avg_bpred_power_cc1          1.7825 # avg power usage of bpred unit_cc1
avg_window_power_cc1        15.7621 # avg power usage of instruction window_cc1
avg_lsq_power_cc1            6.7522 # avg power usage of lsq_cc1
avg_regfile_power_cc1        3.3465 # avg power usage of arch. regfile_cc1
avg_icache_power_cc1         4.2336 # avg power usage of icache_cc1
avg_dcache_power_cc1         5.9680 # avg power usage of dcache_cc1
avg_dcache2_power_cc1        0.2050 # avg power usage of dcache2_cc1
avg_alu_power_cc1            4.6601 # avg power usage of alu_cc1
avg_resultbus_power_cc1       8.6409 # avg power usage of resultbus_cc1
avg_clock_power_cc1         21.7277 # avg power usage of clock_cc1
fetch_stage_power_cc1  1504011966.0555 # total power usage of fetch stage_cc1
dispatch_stage_power_cc1 170825811.6335 # total power usage of dispatch stage_cc1
issue_stage_power_cc1  10497041791.8006 # total power usage of issue stage_cc1
avg_fetch_power_cc1          6.0160 # average power of fetch unit per cycle_cc1
avg_dispatch_power_cc1       0.6833 # average power of dispatch unit per cycle_cc1
avg_issue_power_cc1         41.9882 # average power of issue unit per cycle_cc1
total_power_cycle_cc1  18440432107.4322 # total power per cycle_cc1
avg_total_power_cycle_cc1      73.7617 # average total power per cycle_cc1
avg_total_power_insn_cc1      30.4340 # average total power per insn_cc1
rename_power_cc2       103509436.4856 # total power usage of rename unit_cc2
bpred_power_cc2        222810586.2949 # total power usage of bpred unit_cc2
window_power_cc2       3871759803.7462 # total power usage of instruction window_cc2
lsq_power_cc2          873773098.7209 # total power usage of lsq_cc2
regfile_power_cc2      140666797.9430 # total power usage of arch. regfile_cc2
icache_power_cc2       1058395547.2716 # total power usage of icache_cc2
dcache_power_cc2       1389445196.1833 # total power usage of dcache_cc2
dcache2_power_cc2      51235893.9340 # total power usage of dcache2_cc2
alu_power_cc2          700165944.8044 # total power usage of alu_cc2
resultbus_power_cc2    1654724218.8248 # total power usage of resultbus_cc2
clock_power_cc2        4211202402.7637 # total power usage of clock_cc2
avg_rename_power_cc2         0.4140 # avg power usage of rename unit_cc2
avg_bpred_power_cc2          0.8912 # avg power usage of bpred unit_cc2
avg_window_power_cc2        15.4870 # avg power usage of instruction window_cc2
avg_lsq_power_cc2            3.4951 # avg power usage of instruction lsq_cc2
avg_regfile_power_cc2        0.5627 # avg power usage of arch. regfile_cc2
avg_icache_power_cc2         4.2336 # avg power usage of icache_cc2
avg_dcache_power_cc2         5.5578 # avg power usage of dcache_cc2
avg_dcache2_power_cc2        0.2049 # avg power usage of dcache2_cc2
avg_alu_power_cc2            2.8007 # avg power usage of alu_cc2
avg_resultbus_power_cc2       6.6189 # avg power usage of resultbus_cc2
avg_clock_power_cc2         16.8448 # avg power usage of clock_cc2
fetch_stage_power_cc2  1281206133.5665 # total power usage of fetch stage_cc2
dispatch_stage_power_cc2 103509436.4856 # total power usage of dispatch stage_cc2
issue_stage_power_cc2  8541104156.2137 # total power usage of issue stage_cc2
avg_fetch_power_cc2          5.1248 # average power of fetch unit per cycle_cc2
avg_dispatch_power_cc2       0.4140 # average power of dispatch unit per cycle_cc2
avg_issue_power_cc2         34.1644 # average power of issue unit per cycle_cc2
total_power_cycle_cc2  14277688926.9724 # total power per cycle_cc2
avg_total_power_cycle_cc2      57.1108 # average total power per cycle_cc2
avg_total_power_insn_cc2      23.5638 # average total power per insn_cc2
rename_power_cc3       103509988.4075 # total power usage of rename unit_cc3
bpred_power_cc3        291327122.0161 # total power usage of bpred unit_cc3
window_power_cc3       3871762490.0540 # total power usage of instruction window_cc3
lsq_power_cc3          904260875.7493 # total power usage of lsq_cc3
regfile_power_cc3      141109017.4739 # total power usage of arch. regfile_cc3
icache_power_cc3       1058401042.3231 # total power usage of icache_cc3
dcache_power_cc3       1475995314.9294 # total power usage of dcache_cc3
dcache2_power_cc3      176115575.1393 # total power usage of dcache2_cc3
alu_power_cc3          1057193100.1253 # total power usage of alu_cc3
resultbus_power_cc3    1654726618.0657 # total power usage of resultbus_cc3
clock_power_cc3        4428802787.0388 # total power usage of clock_cc3
avg_rename_power_cc3         0.4140 # avg power usage of rename unit_cc3
avg_bpred_power_cc3          1.1653 # avg power usage of bpred unit_cc3
avg_window_power_cc3        15.4870 # avg power usage of instruction window_cc3
avg_lsq_power_cc3            3.6170 # avg power usage of instruction lsq_cc3
avg_regfile_power_cc3        0.5644 # avg power usage of arch. regfile_cc3
avg_icache_power_cc3         4.2336 # avg power usage of icache_cc3
avg_dcache_power_cc3         5.9040 # avg power usage of dcache_cc3
avg_dcache2_power_cc3        0.7045 # avg power usage of dcache2_cc3
avg_alu_power_cc3            4.2288 # avg power usage of alu_cc3
avg_resultbus_power_cc3       6.6189 # avg power usage of resultbus_cc3
avg_clock_power_cc3         17.7152 # avg power usage of clock_cc3
fetch_stage_power_cc3  1349728164.3392 # total power usage of fetch stage_cc3
dispatch_stage_power_cc3 103509988.4075 # total power usage of dispatch stage_cc3
issue_stage_power_cc3  9140053974.0631 # total power usage of issue stage_cc3
avg_fetch_power_cc3          5.3989 # average power of fetch unit per cycle_cc3
avg_dispatch_power_cc3       0.4140 # average power of dispatch unit per cycle_cc3
avg_issue_power_cc3         36.5602 # average power of issue unit per cycle_cc3
total_power_cycle_cc3  15163203931.3224 # total power per cycle_cc3
avg_total_power_cycle_cc3      60.6528 # average total power per cycle_cc3
avg_total_power_insn_cc3      25.0253 # average total power per insn_cc3
total_rename_access       605915996 # total number accesses of rename unit
total_bpred_access         98520610 # total number accesses of bpred unit
total_window_access      2694566431 # total number accesses of instruction window
total_lsq_access          394079584 # total number accesses of load/store queue
total_regfile_access      502459737 # total number accesses of arch. regfile
total_icache_access       605919088 # total number accesses of icache
total_dcache_access       300492851 # total number accesses of dcache
total_dcache2_access       19705598 # total number accesses of dcache2
total_alu_access          600983839 # total number accesses of alu
total_resultbus_access    768465793 # total number accesses of resultbus
avg_rename_access            2.4237 # avg number accesses of rename unit
avg_bpred_access             0.3941 # avg number accesses of bpred unit
avg_window_access           10.7783 # avg number accesses of instruction window
avg_lsq_access               1.5763 # avg number accesses of lsq
avg_regfile_access           2.0098 # avg number accesses of arch. regfile
avg_icache_access            2.4237 # avg number accesses of icache
avg_dcache_access            1.2020 # avg number accesses of dcache
avg_dcache2_access           0.0788 # avg number accesses of dcache2
avg_alu_access               2.4039 # avg number accesses of alu
avg_resultbus_access         3.0739 # avg number accesses of resultbus
max_rename_access                 4 # max number accesses of rename unit
max_bpred_access                  4 # max number accesses of bpred unit
max_window_access                75 # max number accesses of instruction window
max_lsq_access                    4 # max number accesses of load/store queue
max_regfile_access               11 # max number accesses of arch. regfile
max_icache_access                 4 # max number accesses of icache
max_dcache_access                 4 # max number accesses of dcache
max_dcache2_access                6 # max number accesses of dcache2
max_alu_access                    4 # max number accesses of alu
max_resultbus_access             66 # max number accesses of resultbus
max_cycle_power_cc1        274.6858 # maximum cycle power usage of cc1
max_cycle_power_cc2        259.8384 # maximum cycle power usage of cc2
max_cycle_power_cc3        264.0815 # maximum cycle power usage of cc3


******* SMT STATS *******
THROUGHPUT IPC: 2.4236

TH0 IPC: 0.0002

TH1 IPC: 0.5515

TH2 IPC: 0.0001

TH3 IPC: 1.8718

