sim-outorder: SimpleScalar/Alpha Tool Set version 3.0 of August, 2003.
Copyright (c) 1994-2003 by Todd M. Austin, Ph.D. and SimpleScalar, LLC.
All Rights Reserved. This version of SimpleScalar is licensed for academic
non-commercial use.  No portion of this work may be used by any commercial
entity, or for any commercial purpose, without the prior written permission
of SimpleScalar, LLC (info@simplescalar.com).


Processor Parameters:
Issue Width: 4
Window Size: 224
Number of Virtual Registers: 32
Number of Physical Registers: 256
Datapath Width: 64
Total Power Consumption: 110.149
Branch Predictor Power Consumption: 4.52313  (4.18%)
 branch target buffer power (W): 4.16837
 local predict power (W): 0.0879711
 global predict power (W): 0.0996078
 chooser power (W): 0.0702439
 RAS power (W): 0.0969383
Rename Logic Power Consumption: 0.683325  (0.632%)
 Instruction Decode Power (W): 0.0159915
 RAT decode_power (W): 0.113514
 RAT wordline_power (W): 0.0493708
 RAT bitline_power (W): 0.493541
 DCL Comparators (W): 0.0109075
Instruction Window Power Consumption: 14.2762  (13.2%)
 tagdrive (W): 0.827064
 tagmatch (W): 0.360565
 Selection Logic (W): 0.0885831
 decode_power (W): 1.16922
 wordline_power (W): 0.0844643
 bitline_power (W): 11.7463
Load/Store Queue Power Consumption: 7.97171  (7.37%)
 tagdrive (W): 3.75392
 tagmatch (W): 1.61238
 decode_power (W): 0.181222
 wordline_power (W): 0.0150119
 bitline_power (W): 2.40917
Arch. Register File Power Consumption: 3.57247  (3.3%)
 decode_power (W): 0.113514
 wordline_power (W): 0.0844643
 bitline_power (W): 3.37449
Result Bus Power Consumption: 9.01293  (8.33%)
Total Clock Power: 30.4863  (28.2%)
Int ALU Power: 4.66013  (4.31%)
FP ALU Power: 14.281  (13.2%)
Instruction Cache Power Consumption: 3.97049  (3.67%)
 decode_power (W): 1.67268
 wordline_power (W): 0.028656
 bitline_power (W): 1.5122
 senseamp_power (W): 0.096
 tagarray_power (W): 0.660946
Itlb_power (W): 0.263317 (0.243%)
Data Cache Power Consumption: 8.34726  (7.72%)
 decode_power (W): 1.44978
 wordline_power (W): 0.196735
 bitline_power (W): 4.58765
 senseamp_power (W): 0.768
 tagarray_power (W): 1.34509
Dtlb_power (W): 0.900515 (0.833%)
Level 2 Cache Power Consumption: 5.20014 (4.81%)
 decode_power (W): 0.41817
 wordline_power (W): 0.0430878
 bitline_power (W): 3.0244
 senseamp_power (W): 0.192
 tagarray_power (W): 1.52247
sim-main: initalizing context 0:libquantumNS.1.arg
args: 0:./libquantum.base.alpha 1:1397 2:8 
sim: loading binary...
sim: loading ./libquantum.base.alpha
warning: section `.comment' ignored...
sim-main: initalizing context 1:milcNS.1.arg
args: 0:./milc.base.alpha 
sim: loading binary...
sim: loading ./milc.base.alpha
sim-main: initalizing context 2:namdNS.1.arg
args: 0:./namd.base.alpha 1:--input 2:./namd.input 3:--iterations 4:38 5:--output 6:./namd.out 
sim: loading binary...
sim: loading ./namd.base.alpha
warning: section `.comment' ignored...
sim-main: initalizing context 3:zeusmpNS.1.arg
args: 0:./zeusmp.base.alpha 
sim: loading binary...
sim: loading ./zeusmp.base.alpha
sim: command line: ../m-sim_v2.0/sim-outorder libquantumNS.1.arg milcNS.1.arg namdNS.1.arg zeusmpNS.1.arg 

sim: simulation started @ Fri Aug 12 01:13:31 2022, options follow:

sim-outorder: This simulator implements a very detailed out-of-order issue
superscalar processor with a two-level memory system and speculative
execution support.  This simulator is a performance simulator, tracking the
latency of all pipeline operations.

# -config                     # load configuration from a file
# -dumpconfig                 # dump configuration to a file
# -h                    false # print help message    
# -v                    false # verbose operation     
# -d                    false # enable debug message  
# -i                    false # start in Dlite debugger
-seed                       1 # random number generator seed (0 for timer seed)
# -q                    false # initialize and terminate immediately
# -redir:sim           <null> # redirect simulator output to file (non-interactive only)
# -redir:prog          <null> # redirect simulated program output to file
-nice                       0 # simulator scheduling priority
-max:inst           250000000 # maximum number of inst's to execute
-fastfwd             10000000 # number of insts skipped before timing starts
# -ptrace              <null> # generate pipetrace, i.e., <fname|stdout|stderr> <range>
-fetch:speed                1 # speed of front-end of machine relative to execution core
-bpred                  bimod # branch predictor type {nottaken|taken|perfect|bimod|2lev|comb}
-bpred:bimod     2048 # bimodal predictor config (<table size>)
-bpred:2lev      1 1024 8 0 # 2-level predictor config (<l1size> <l2size> <hist_size> <xor>)
-bpred:comb      1024 # combining predictor config (<meta_table_size>)
-bpred:ras                  8 # return address stack size (0 for no return stack)
-bpred:btb       512 4 # BTB config (<num_sets> <associativity>)
# -bpred:spec_update       <null> # speculative predictors update in {ID|WB} (default non-spec)
-cpred                  bimod # cache load-latency predictor type {nottaken|taken|perfect|bimod|2lev|comb}
-cpred:bimod     2048 # cache load-latency bimodal predictor config (<table size>)
-cpred:2lev      1 1024 8 0 # cache load-latency 2-level predictor config (<l1size> <l2size> <hist_size> <xor>)
-cpred:comb      1024 # cache load-latency combining predictor config (<meta_table_size>)
-cpred:ras                  0 # return address stack size (0 for no return stack)
-cpred:btb       512 4 # cache load-latency BTB config (<num_sets> <associativity>)
-decode:width               4 # instruction decode B/W (insts/cycle)
-issue:width                4 # instruction issue B/W (insts/cycle)
-issue:inorder          false # run pipeline with in-order issue
-issue:wrongpath         true # issue instructions down wrong execution paths
-commit:width               4 # instruction commit B/W (insts/cycle)
-rob:size                 224 # reorder buffer (ROB) size
-fetch:policy |icount|round_robin|       icount # fetch policy          
-recovery:model        squash # Alpha squash recovery or perfect predition: |squash|perfect|
-iq:size                   96 # issue queue (IQ) size 
-iq:issue_exec_delay            1 # minimum cycles between issue and execution
-fetch_rename_delay            4 # number of cycles between fetch and rename stages
-rename_dispatch_delay            1 # number cycles between rename and dispatch stages
-rf:size                  256 # register file (RF) size for each the INT and FP physical register file)
-lsq:size                 128 # load/store queue (LSQ) size
-cache:dl1       dl1:256:32:4:l # l1 data cache config, i.e., {<config>|none}
-cache:dl1lat               1 # l1 data cache hit latency (in cycles)
-cache:dl2       ul2:1024:64:8:l # l2 data cache config, i.e., {<config>|none}
-cache:dl2lat               6 # l2 data cache hit latency (in cycles)
-cache:il1       il1:512:32:2:l # l1 inst cache config, i.e., {<config>|dl1|dl2|none}
-cache:il1lat               1 # l1 instruction cache hit latency (in cycles)
-cache:il2                dl2 # l2 instruction cache config, i.e., {<config>|dl2|none}
-cache:il2lat               6 # l2 instruction cache hit latency (in cycles)
-cache:flush            false # flush caches on system calls
-cache:icompress        false # convert 64-bit inst addresses to 32-bit inst equivalents
-mem:lat         100 2 # memory access latency (<first_chunk> <inter_chunk>)
-mem:width                  8 # memory access bus width (in bytes)
-tlb:itlb        itlb:16:4096:4:l # instruction TLB config, i.e., {<config>|none}
-tlb:dtlb        dtlb:32:4096:4:l # data TLB config, i.e., {<config>|none}
-tlb:lat                   30 # inst/data TLB miss latency (in cycles)
-res:ialu                   4 # total number of integer ALU's available
-res:imult                  1 # total number of integer multiplier/dividers available
-res:memport                2 # total number of memory system ports available (to CPU)
-res:fpalu                  4 # total number of floating point ALU's available
-res:fpmult                 1 # total number of floating point multiplier/dividers available
# -pcstat              <null> # profile stat(s) against text addr's (mult uses ok)
-power:print_stats         true # print power statistics collected by wattch?

  Pipetrace range arguments are formatted as follows:

    {{@|#}<start>}:{{@|#|+}<end>}

  Both ends of the range are optional, if neither are specified, the entire
  execution is traced.  Ranges that start with a `@' designate an address
  range to be traced, those that start with an `#' designate a cycle count
  range.  All other range values represent an instruction count range.  The
  second argument, if specified with a `+', indicates a value relative
  to the first argument, e.g., 1000:+100 == 1000:1100.  Program symbols may
  be used in all contexts.

    Examples:   -ptrace FOO.trc #0:#1000
                -ptrace BAR.trc @2000:
                -ptrace BLAH.trc :1500
                -ptrace UXXE.trc :
                -ptrace FOOBAR.trc @main:+278

  Branch predictor configuration examples for 2-level predictor:
    Configurations:   N, M, W, X
      N   # entries in first level (# of shift register(s))
      W   width of shift register(s)
      M   # entries in 2nd level (# of counters, or other FSM)
      X   (yes-1/no-0) xor history and address for 2nd level index
    Sample predictors:
      GAg     : 1, W, 2^W, 0
      GAp     : 1, W, M (M > 2^W), 0
      PAg     : N, W, 2^W, 0
      PAp     : N, W, M (M == 2^(N+W)), 0
      gshare  : 1, W, 2^W, 1
  Predictor `comb' combines a bimodal and a 2-level predictor.

  The cache config parameter <config> has the following format:

    <name>:<nsets>:<bsize>:<assoc>:<repl>

    <name>   - name of the cache being defined
    <nsets>  - number of sets in the cache
    <bsize>  - block size of the cache
    <assoc>  - associativity of the cache
    <repl>   - block replacement strategy, 'l'-LRU, 'f'-FIFO, 'r'-random

    Examples:   -cache:dl1 dl1:4096:32:1:l
                -dtlb dtlb:128:4096:32:r

  Cache levels can be unified by pointing a level of the instruction cache
  hierarchy at the data cache hiearchy using the "dl1" and "dl2" cache
  configuration arguments.  Most sensible combinations are supported, e.g.,

    A unified l2 cache (il2 is pointed at dl2):
      -cache:il1 il1:128:64:1:l -cache:il2 dl2
      -cache:dl1 dl1:256:32:1:l -cache:dl2 ul2:1024:64:2:l

    Or, a fully unified cache hierarchy (il1 pointed at dl1):
      -cache:il1 dl1
      -cache:dl1 ul1:256:32:1:l -cache:dl2 ul2:1024:64:2:l



sim: ** fast forwarding insts **
warning: partially supported sigaction() call...
warning: unsupported ioctl call: ioctl(536900702, ...)
warning: invalid/unimplemented syscall 226, PC=0x1200b4a54, RA=0x120098314, winging it
warning: unsupported ioctl call: ioctl(536900702, ...)
sim: ** starting performance simulation **
EPOCH STARTS
TH0 ROB: 4 LSQ: 4 IQ: 0 IPC: 0.0177
TH1 ROB: 104 LSQ: 85 IQ: 96, IPC: 2.1520
TH2 ROB: 4 LSQ: 1 IQ: 0, IPC: 0.0151
TH3 ROB: 4 LSQ: 3 IQ: 0, IPC: 0.0159
EPOCH ENDS
EPOCH STARTS
TH0 ROB: 4 LSQ: 4 IQ: 0 IPC: 0.0089
TH1 ROB: 105 LSQ: 86 IQ: 96, IPC: 2.1740
TH2 ROB: 4 LSQ: 1 IQ: 0, IPC: 0.0076
TH3 ROB: 4 LSQ: 3 IQ: 0, IPC: 0.0080
EPOCH ENDS
EPOCH STARTS
TH0 ROB: 4 LSQ: 4 IQ: 0 IPC: 0.0059
TH1 ROB: 105 LSQ: 87 IQ: 96, IPC: 2.1814
TH2 ROB: 4 LSQ: 1 IQ: 0, IPC: 0.0050
TH3 ROB: 4 LSQ: 3 IQ: 0, IPC: 0.0053
EPOCH ENDS
EPOCH STARTS
TH0 ROB: 4 LSQ: 4 IQ: 0 IPC: 0.0044
TH1 ROB: 106 LSQ: 87 IQ: 96, IPC: 2.1850
TH2 ROB: 4 LSQ: 1 IQ: 0, IPC: 0.0038
TH3 ROB: 4 LSQ: 3 IQ: 0, IPC: 0.0040
EPOCH ENDS
EPOCH STARTS
TH0 ROB: 4 LSQ: 4 IQ: 0 IPC: 0.0035
TH1 ROB: 104 LSQ: 85 IQ: 96, IPC: 2.1873
TH2 ROB: 4 LSQ: 1 IQ: 0, IPC: 0.0030
TH3 ROB: 4 LSQ: 3 IQ: 0, IPC: 0.0032
EPOCH ENDS
EPOCH STARTS
TH0 ROB: 4 LSQ: 4 IQ: 0 IPC: 0.0030
TH1 ROB: 104 LSQ: 85 IQ: 96, IPC: 2.1887
TH2 ROB: 4 LSQ: 1 IQ: 0, IPC: 0.0025
TH3 ROB: 4 LSQ: 3 IQ: 0, IPC: 0.0027
EPOCH ENDS
EPOCH STARTS
TH0 ROB: 4 LSQ: 4 IQ: 0 IPC: 0.0025
TH1 ROB: 104 LSQ: 85 IQ: 96, IPC: 2.1898
TH2 ROB: 4 LSQ: 1 IQ: 0, IPC: 0.0022
TH3 ROB: 4 LSQ: 3 IQ: 0, IPC: 0.0023
EPOCH ENDS
EPOCH STARTS
TH0 ROB: 4 LSQ: 4 IQ: 0 IPC: 0.0022
TH1 ROB: 105 LSQ: 87 IQ: 96, IPC: 2.1906
TH2 ROB: 4 LSQ: 1 IQ: 0, IPC: 0.0019
TH3 ROB: 4 LSQ: 3 IQ: 0, IPC: 0.0020
EPOCH ENDS
EPOCH STARTS
TH0 ROB: 4 LSQ: 4 IQ: 0 IPC: 0.0020
TH1 ROB: 105 LSQ: 86 IQ: 96, IPC: 2.1912
TH2 ROB: 4 LSQ: 1 IQ: 0, IPC: 0.0017
TH3 ROB: 4 LSQ: 3 IQ: 0, IPC: 0.0018
EPOCH ENDS
EPOCH STARTS
TH0 ROB: 4 LSQ: 4 IQ: 0 IPC: 0.0018
TH1 ROB: 104 LSQ: 85 IQ: 96, IPC: 2.1917
TH2 ROB: 4 LSQ: 1 IQ: 0, IPC: 0.0015
TH3 ROB: 4 LSQ: 3 IQ: 0, IPC: 0.0016
EPOCH ENDS
EPOCH STARTS
TH0 ROB: 4 LSQ: 4 IQ: 0 IPC: 0.0016
TH1 ROB: 104 LSQ: 85 IQ: 96, IPC: 2.1921
TH2 ROB: 4 LSQ: 1 IQ: 0, IPC: 0.0014
TH3 ROB: 4 LSQ: 3 IQ: 0, IPC: 0.0014
EPOCH ENDS
EPOCH STARTS
TH0 ROB: 4 LSQ: 4 IQ: 0 IPC: 0.0015
TH1 ROB: 104 LSQ: 87 IQ: 96, IPC: 2.1924
TH2 ROB: 4 LSQ: 1 IQ: 0, IPC: 0.0013
TH3 ROB: 4 LSQ: 3 IQ: 0, IPC: 0.0013
EPOCH ENDS
EPOCH STARTS
TH0 ROB: 4 LSQ: 4 IQ: 0 IPC: 0.0014
TH1 ROB: 105 LSQ: 87 IQ: 96, IPC: 2.1927
TH2 ROB: 4 LSQ: 1 IQ: 0, IPC: 0.0012
TH3 ROB: 4 LSQ: 3 IQ: 0, IPC: 0.0012
EPOCH ENDS
EPOCH STARTS
TH0 ROB: 4 LSQ: 4 IQ: 0 IPC: 0.0013
TH1 ROB: 105 LSQ: 85 IQ: 96, IPC: 2.1929
TH2 ROB: 4 LSQ: 1 IQ: 0, IPC: 0.0011
TH3 ROB: 4 LSQ: 3 IQ: 0, IPC: 0.0011
EPOCH ENDS
EPOCH STARTS
TH0 ROB: 4 LSQ: 4 IQ: 0 IPC: 0.0012
TH1 ROB: 104 LSQ: 85 IQ: 96, IPC: 2.1931
TH2 ROB: 4 LSQ: 1 IQ: 0, IPC: 0.0010
TH3 ROB: 4 LSQ: 3 IQ: 0, IPC: 0.0011
EPOCH ENDS
EPOCH STARTS
TH0 ROB: 4 LSQ: 4 IQ: 0 IPC: 0.0011
TH1 ROB: 104 LSQ: 85 IQ: 96, IPC: 2.1933
TH2 ROB: 4 LSQ: 1 IQ: 0, IPC: 0.0009
TH3 ROB: 4 LSQ: 3 IQ: 0, IPC: 0.0010
EPOCH ENDS
EPOCH STARTS
TH0 ROB: 4 LSQ: 4 IQ: 0 IPC: 0.0010
TH1 ROB: 104 LSQ: 86 IQ: 96, IPC: 2.1935
TH2 ROB: 4 LSQ: 1 IQ: 0, IPC: 0.0009
TH3 ROB: 4 LSQ: 3 IQ: 0, IPC: 0.0009
EPOCH ENDS
EPOCH STARTS
TH0 ROB: 4 LSQ: 4 IQ: 0 IPC: 0.0010
TH1 ROB: 107 LSQ: 88 IQ: 96, IPC: 2.1936
TH2 ROB: 4 LSQ: 1 IQ: 0, IPC: 0.0008
TH3 ROB: 4 LSQ: 3 IQ: 0, IPC: 0.0009
EPOCH ENDS
EPOCH STARTS
TH0 ROB: 4 LSQ: 4 IQ: 0 IPC: 0.0009
TH1 ROB: 105 LSQ: 86 IQ: 96, IPC: 2.1938
TH2 ROB: 4 LSQ: 1 IQ: 0, IPC: 0.0008
TH3 ROB: 4 LSQ: 3 IQ: 0, IPC: 0.0008
EPOCH ENDS
EPOCH STARTS
TH0 ROB: 4 LSQ: 4 IQ: 0 IPC: 0.0009
TH1 ROB: 105 LSQ: 85 IQ: 96, IPC: 2.1939
TH2 ROB: 4 LSQ: 1 IQ: 0, IPC: 0.0008
TH3 ROB: 4 LSQ: 3 IQ: 0, IPC: 0.0008
EPOCH ENDS
EPOCH STARTS
TH0 ROB: 4 LSQ: 4 IQ: 0 IPC: 0.0008
TH1 ROB: 104 LSQ: 85 IQ: 96, IPC: 2.1940
TH2 ROB: 4 LSQ: 1 IQ: 0, IPC: 0.0007
TH3 ROB: 4 LSQ: 3 IQ: 0, IPC: 0.0008
EPOCH ENDS
EPOCH STARTS
TH0 ROB: 4 LSQ: 4 IQ: 0 IPC: 0.0008
TH1 ROB: 105 LSQ: 87 IQ: 96, IPC: 2.1941
TH2 ROB: 4 LSQ: 1 IQ: 0, IPC: 0.0007
TH3 ROB: 4 LSQ: 3 IQ: 0, IPC: 0.0007
EPOCH ENDS
EPOCH STARTS
TH0 ROB: 4 LSQ: 4 IQ: 0 IPC: 0.0008
TH1 ROB: 105 LSQ: 86 IQ: 96, IPC: 2.1942
TH2 ROB: 4 LSQ: 1 IQ: 0, IPC: 0.0007
TH3 ROB: 4 LSQ: 3 IQ: 0, IPC: 0.0007
EPOCH ENDS
EPOCH STARTS
TH0 ROB: 4 LSQ: 4 IQ: 0 IPC: 0.0007
TH1 ROB: 104 LSQ: 85 IQ: 96, IPC: 2.1942
TH2 ROB: 4 LSQ: 1 IQ: 0, IPC: 0.0006
TH3 ROB: 4 LSQ: 3 IQ: 0, IPC: 0.0007
EPOCH ENDS
EPOCH STARTS
TH0 ROB: 4 LSQ: 4 IQ: 0 IPC: 0.0007
TH1 ROB: 105 LSQ: 86 IQ: 96, IPC: 2.1943
TH2 ROB: 4 LSQ: 1 IQ: 0, IPC: 0.0006
TH3 ROB: 4 LSQ: 3 IQ: 0, IPC: 0.0006
EPOCH ENDS
EPOCH STARTS
TH0 ROB: 4 LSQ: 4 IQ: 0 IPC: 0.0007
TH1 ROB: 105 LSQ: 87 IQ: 96, IPC: 2.1944
TH2 ROB: 4 LSQ: 1 IQ: 0, IPC: 0.0006
TH3 ROB: 4 LSQ: 3 IQ: 0, IPC: 0.0006
EPOCH ENDS
EPOCH STARTS
TH0 ROB: 4 LSQ: 4 IQ: 0 IPC: 0.0007
TH1 ROB: 105 LSQ: 87 IQ: 96, IPC: 2.1944
TH2 ROB: 4 LSQ: 1 IQ: 0, IPC: 0.0006
TH3 ROB: 4 LSQ: 3 IQ: 0, IPC: 0.0006
EPOCH ENDS
EPOCH STARTS
TH0 ROB: 4 LSQ: 4 IQ: 0 IPC: 0.0006
TH1 ROB: 106 LSQ: 87 IQ: 96, IPC: 2.1945
TH2 ROB: 4 LSQ: 1 IQ: 0, IPC: 0.0005
TH3 ROB: 4 LSQ: 3 IQ: 0, IPC: 0.0006
EPOCH ENDS
EPOCH STARTS
TH0 ROB: 4 LSQ: 4 IQ: 0 IPC: 0.0006
TH1 ROB: 104 LSQ: 85 IQ: 96, IPC: 2.1946
TH2 ROB: 4 LSQ: 1 IQ: 0, IPC: 0.0005
TH3 ROB: 4 LSQ: 3 IQ: 0, IPC: 0.0005
EPOCH ENDS
EPOCH STARTS
TH0 ROB: 4 LSQ: 4 IQ: 0 IPC: 0.0006
TH1 ROB: 104 LSQ: 85 IQ: 96, IPC: 2.1946
TH2 ROB: 4 LSQ: 1 IQ: 0, IPC: 0.0005
TH3 ROB: 4 LSQ: 3 IQ: 0, IPC: 0.0005
EPOCH ENDS
EPOCH STARTS
TH0 ROB: 4 LSQ: 4 IQ: 0 IPC: 0.0006
TH1 ROB: 105 LSQ: 87 IQ: 96, IPC: 2.1947
TH2 ROB: 4 LSQ: 1 IQ: 0, IPC: 0.0005
TH3 ROB: 4 LSQ: 3 IQ: 0, IPC: 0.0005
EPOCH ENDS
EPOCH STARTS
TH0 ROB: 4 LSQ: 4 IQ: 0 IPC: 0.0006
TH1 ROB: 106 LSQ: 87 IQ: 96, IPC: 2.1947
TH2 ROB: 4 LSQ: 1 IQ: 0, IPC: 0.0005
TH3 ROB: 4 LSQ: 3 IQ: 0, IPC: 0.0005
EPOCH ENDS
EPOCH STARTS
TH0 ROB: 4 LSQ: 4 IQ: 0 IPC: 0.0005
TH1 ROB: 106 LSQ: 87 IQ: 96, IPC: 2.1947
TH2 ROB: 4 LSQ: 1 IQ: 0, IPC: 0.0005
TH3 ROB: 4 LSQ: 3 IQ: 0, IPC: 0.0005
EPOCH ENDS
EPOCH STARTS
TH0 ROB: 4 LSQ: 4 IQ: 0 IPC: 0.0005
TH1 ROB: 106 LSQ: 87 IQ: 96, IPC: 2.1948
TH2 ROB: 4 LSQ: 1 IQ: 0, IPC: 0.0004
TH3 ROB: 4 LSQ: 3 IQ: 0, IPC: 0.0005
EPOCH ENDS
EPOCH STARTS
TH0 ROB: 4 LSQ: 4 IQ: 0 IPC: 0.0005
TH1 ROB: 104 LSQ: 86 IQ: 96, IPC: 2.1948
TH2 ROB: 4 LSQ: 1 IQ: 0, IPC: 0.0004
TH3 ROB: 4 LSQ: 3 IQ: 0, IPC: 0.0005
EPOCH ENDS
EPOCH STARTS
TH0 ROB: 4 LSQ: 4 IQ: 0 IPC: 0.0005
TH1 ROB: 104 LSQ: 87 IQ: 96, IPC: 2.1949
TH2 ROB: 4 LSQ: 1 IQ: 0, IPC: 0.0004
TH3 ROB: 4 LSQ: 3 IQ: 0, IPC: 0.0004
EPOCH ENDS
EPOCH STARTS
TH0 ROB: 4 LSQ: 4 IQ: 0 IPC: 0.0005
TH1 ROB: 105 LSQ: 86 IQ: 96, IPC: 2.1949
TH2 ROB: 4 LSQ: 1 IQ: 0, IPC: 0.0004
TH3 ROB: 4 LSQ: 3 IQ: 0, IPC: 0.0004
EPOCH ENDS
EPOCH STARTS
TH0 ROB: 4 LSQ: 4 IQ: 0 IPC: 0.0005
TH1 ROB: 105 LSQ: 86 IQ: 96, IPC: 2.1949
TH2 ROB: 4 LSQ: 1 IQ: 0, IPC: 0.0004
TH3 ROB: 4 LSQ: 3 IQ: 0, IPC: 0.0004
EPOCH ENDS
EPOCH STARTS
TH0 ROB: 4 LSQ: 4 IQ: 0 IPC: 0.0005
TH1 ROB: 106 LSQ: 87 IQ: 96, IPC: 2.1949
TH2 ROB: 4 LSQ: 1 IQ: 0, IPC: 0.0004
TH3 ROB: 4 LSQ: 3 IQ: 0, IPC: 0.0004
EPOCH ENDS
EPOCH STARTS
TH0 ROB: 4 LSQ: 4 IQ: 0 IPC: 0.0004
TH1 ROB: 105 LSQ: 87 IQ: 96, IPC: 2.1950
TH2 ROB: 4 LSQ: 1 IQ: 0, IPC: 0.0004
TH3 ROB: 4 LSQ: 3 IQ: 0, IPC: 0.0004
EPOCH ENDS
EPOCH STARTS
TH0 ROB: 4 LSQ: 4 IQ: 0 IPC: 0.0004
TH1 ROB: 105 LSQ: 86 IQ: 96, IPC: 2.1950
TH2 ROB: 4 LSQ: 1 IQ: 0, IPC: 0.0004
TH3 ROB: 4 LSQ: 3 IQ: 0, IPC: 0.0004
EPOCH ENDS
EPOCH STARTS
TH0 ROB: 4 LSQ: 4 IQ: 0 IPC: 0.0004
TH1 ROB: 105 LSQ: 86 IQ: 96, IPC: 2.1950
TH2 ROB: 4 LSQ: 1 IQ: 0, IPC: 0.0004
TH3 ROB: 4 LSQ: 3 IQ: 0, IPC: 0.0004
EPOCH ENDS
EPOCH STARTS
TH0 ROB: 4 LSQ: 4 IQ: 0 IPC: 0.0004
TH1 ROB: 105 LSQ: 86 IQ: 96, IPC: 2.1951
TH2 ROB: 4 LSQ: 1 IQ: 0, IPC: 0.0004
TH3 ROB: 4 LSQ: 3 IQ: 0, IPC: 0.0004
EPOCH ENDS
EPOCH STARTS
TH0 ROB: 4 LSQ: 4 IQ: 0 IPC: 0.0004
TH1 ROB: 105 LSQ: 86 IQ: 96, IPC: 2.1951
TH2 ROB: 4 LSQ: 1 IQ: 0, IPC: 0.0003
TH3 ROB: 4 LSQ: 3 IQ: 0, IPC: 0.0004
EPOCH ENDS
EPOCH STARTS
TH0 ROB: 4 LSQ: 4 IQ: 0 IPC: 0.0004
TH1 ROB: 105 LSQ: 87 IQ: 96, IPC: 2.1951
TH2 ROB: 4 LSQ: 1 IQ: 0, IPC: 0.0003
TH3 ROB: 4 LSQ: 3 IQ: 0, IPC: 0.0004
EPOCH ENDS
EPOCH STARTS
TH0 ROB: 4 LSQ: 4 IQ: 0 IPC: 0.0004
TH1 ROB: 105 LSQ: 86 IQ: 96, IPC: 2.1951
TH2 ROB: 4 LSQ: 1 IQ: 0, IPC: 0.0003
TH3 ROB: 4 LSQ: 3 IQ: 0, IPC: 0.0003
EPOCH ENDS
EPOCH STARTS
TH0 ROB: 4 LSQ: 4 IQ: 0 IPC: 0.0004
TH1 ROB: 105 LSQ: 86 IQ: 96, IPC: 2.1951
TH2 ROB: 4 LSQ: 1 IQ: 0, IPC: 0.0003
TH3 ROB: 4 LSQ: 3 IQ: 0, IPC: 0.0003
EPOCH ENDS
EPOCH STARTS
TH0 ROB: 4 LSQ: 4 IQ: 0 IPC: 0.0004
TH1 ROB: 105 LSQ: 86 IQ: 96, IPC: 2.1952
TH2 ROB: 4 LSQ: 1 IQ: 0, IPC: 0.0003
TH3 ROB: 4 LSQ: 3 IQ: 0, IPC: 0.0003
EPOCH ENDS
EPOCH STARTS
TH0 ROB: 4 LSQ: 4 IQ: 0 IPC: 0.0004
TH1 ROB: 105 LSQ: 87 IQ: 96, IPC: 2.1952
TH2 ROB: 4 LSQ: 1 IQ: 0, IPC: 0.0003
TH3 ROB: 4 LSQ: 3 IQ: 0, IPC: 0.0003
EPOCH ENDS
EPOCH STARTS
TH0 ROB: 4 LSQ: 4 IQ: 0 IPC: 0.0004
TH1 ROB: 105 LSQ: 88 IQ: 96, IPC: 2.1952
TH2 ROB: 4 LSQ: 1 IQ: 0, IPC: 0.0003
TH3 ROB: 4 LSQ: 3 IQ: 0, IPC: 0.0003
EPOCH ENDS
EPOCH STARTS
TH0 ROB: 4 LSQ: 4 IQ: 0 IPC: 0.0003
TH1 ROB: 104 LSQ: 85 IQ: 96, IPC: 2.1952
TH2 ROB: 4 LSQ: 1 IQ: 0, IPC: 0.0003
TH3 ROB: 4 LSQ: 3 IQ: 0, IPC: 0.0003
EPOCH ENDS
EPOCH STARTS
TH0 ROB: 4 LSQ: 4 IQ: 0 IPC: 0.0003
TH1 ROB: 104 LSQ: 85 IQ: 96, IPC: 2.1952
TH2 ROB: 4 LSQ: 1 IQ: 0, IPC: 0.0003
TH3 ROB: 4 LSQ: 3 IQ: 0, IPC: 0.0003
EPOCH ENDS
EPOCH STARTS
TH0 ROB: 4 LSQ: 4 IQ: 0 IPC: 0.0003
TH1 ROB: 105 LSQ: 86 IQ: 96, IPC: 2.1952
TH2 ROB: 4 LSQ: 1 IQ: 0, IPC: 0.0003
TH3 ROB: 4 LSQ: 3 IQ: 0, IPC: 0.0003
EPOCH ENDS
EPOCH STARTS
TH0 ROB: 4 LSQ: 4 IQ: 0 IPC: 0.0003
TH1 ROB: 105 LSQ: 87 IQ: 96, IPC: 2.1953
TH2 ROB: 4 LSQ: 1 IQ: 0, IPC: 0.0003
TH3 ROB: 4 LSQ: 3 IQ: 0, IPC: 0.0003
EPOCH ENDS
EPOCH STARTS
TH0 ROB: 4 LSQ: 4 IQ: 0 IPC: 0.0003
TH1 ROB: 106 LSQ: 87 IQ: 96, IPC: 2.1953
TH2 ROB: 4 LSQ: 1 IQ: 0, IPC: 0.0003
TH3 ROB: 4 LSQ: 3 IQ: 0, IPC: 0.0003
EPOCH ENDS
EPOCH STARTS
TH0 ROB: 4 LSQ: 4 IQ: 0 IPC: 0.0003
TH1 ROB: 104 LSQ: 85 IQ: 96, IPC: 2.1953
TH2 ROB: 4 LSQ: 1 IQ: 0, IPC: 0.0003
TH3 ROB: 4 LSQ: 3 IQ: 0, IPC: 0.0003
EPOCH ENDS
EPOCH STARTS
TH0 ROB: 4 LSQ: 4 IQ: 0 IPC: 0.0003
TH1 ROB: 104 LSQ: 85 IQ: 96, IPC: 2.1953
TH2 ROB: 4 LSQ: 1 IQ: 0, IPC: 0.0003
TH3 ROB: 4 LSQ: 3 IQ: 0, IPC: 0.0003
EPOCH ENDS
EPOCH STARTS
TH0 ROB: 4 LSQ: 4 IQ: 0 IPC: 0.0003
TH1 ROB: 104 LSQ: 85 IQ: 96, IPC: 2.1953
TH2 ROB: 4 LSQ: 1 IQ: 0, IPC: 0.0003
TH3 ROB: 4 LSQ: 3 IQ: 0, IPC: 0.0003
EPOCH ENDS
EPOCH STARTS
TH0 ROB: 4 LSQ: 4 IQ: 0 IPC: 0.0003
TH1 ROB: 105 LSQ: 87 IQ: 96, IPC: 2.1953
TH2 ROB: 4 LSQ: 1 IQ: 0, IPC: 0.0003
TH3 ROB: 4 LSQ: 3 IQ: 0, IPC: 0.0003
EPOCH ENDS
EPOCH STARTS
TH0 ROB: 4 LSQ: 4 IQ: 0 IPC: 0.0003
TH1 ROB: 105 LSQ: 86 IQ: 96, IPC: 2.1953
TH2 ROB: 4 LSQ: 1 IQ: 0, IPC: 0.0003
TH3 ROB: 4 LSQ: 3 IQ: 0, IPC: 0.0003
EPOCH ENDS
EPOCH STARTS
TH0 ROB: 4 LSQ: 4 IQ: 0 IPC: 0.0003
TH1 ROB: 104 LSQ: 85 IQ: 96, IPC: 2.1954
TH2 ROB: 4 LSQ: 1 IQ: 0, IPC: 0.0002
TH3 ROB: 4 LSQ: 3 IQ: 0, IPC: 0.0003
EPOCH ENDS
EPOCH STARTS
TH0 ROB: 4 LSQ: 4 IQ: 0 IPC: 0.0003
TH1 ROB: 104 LSQ: 85 IQ: 96, IPC: 2.1954
TH2 ROB: 4 LSQ: 1 IQ: 0, IPC: 0.0002
TH3 ROB: 4 LSQ: 3 IQ: 0, IPC: 0.0003
EPOCH ENDS
EPOCH STARTS
TH0 ROB: 4 LSQ: 4 IQ: 0 IPC: 0.0003
TH1 ROB: 104 LSQ: 87 IQ: 96, IPC: 2.1954
TH2 ROB: 4 LSQ: 1 IQ: 0, IPC: 0.0002
TH3 ROB: 4 LSQ: 3 IQ: 0, IPC: 0.0003
EPOCH ENDS
EPOCH STARTS
TH0 ROB: 4 LSQ: 4 IQ: 0 IPC: 0.0003
TH1 ROB: 105 LSQ: 87 IQ: 96, IPC: 2.1954
TH2 ROB: 4 LSQ: 1 IQ: 0, IPC: 0.0002
TH3 ROB: 4 LSQ: 3 IQ: 0, IPC: 0.0002
EPOCH ENDS
EPOCH STARTS
TH0 ROB: 4 LSQ: 4 IQ: 0 IPC: 0.0003
TH1 ROB: 105 LSQ: 85 IQ: 96, IPC: 2.1954
TH2 ROB: 4 LSQ: 1 IQ: 0, IPC: 0.0002
TH3 ROB: 4 LSQ: 3 IQ: 0, IPC: 0.0002
EPOCH ENDS
EPOCH STARTS
TH0 ROB: 4 LSQ: 4 IQ: 0 IPC: 0.0003
TH1 ROB: 104 LSQ: 85 IQ: 96, IPC: 2.1954
TH2 ROB: 4 LSQ: 1 IQ: 0, IPC: 0.0002
TH3 ROB: 4 LSQ: 3 IQ: 0, IPC: 0.0002
EPOCH ENDS
EPOCH STARTS
TH0 ROB: 4 LSQ: 4 IQ: 0 IPC: 0.0003
TH1 ROB: 104 LSQ: 85 IQ: 96, IPC: 2.1954
TH2 ROB: 4 LSQ: 1 IQ: 0, IPC: 0.0002
TH3 ROB: 4 LSQ: 3 IQ: 0, IPC: 0.0002
EPOCH ENDS
EPOCH STARTS
TH0 ROB: 4 LSQ: 4 IQ: 0 IPC: 0.0003
TH1 ROB: 104 LSQ: 86 IQ: 96, IPC: 2.1954
TH2 ROB: 4 LSQ: 1 IQ: 0, IPC: 0.0002
TH3 ROB: 4 LSQ: 3 IQ: 0, IPC: 0.0002
EPOCH ENDS
EPOCH STARTS
TH0 ROB: 4 LSQ: 4 IQ: 0 IPC: 0.0003
TH1 ROB: 107 LSQ: 88 IQ: 96, IPC: 2.1954
TH2 ROB: 4 LSQ: 1 IQ: 0, IPC: 0.0002
TH3 ROB: 4 LSQ: 3 IQ: 0, IPC: 0.0002
EPOCH ENDS
EPOCH STARTS
TH0 ROB: 4 LSQ: 4 IQ: 0 IPC: 0.0003
TH1 ROB: 105 LSQ: 86 IQ: 96, IPC: 2.1954
TH2 ROB: 4 LSQ: 1 IQ: 0, IPC: 0.0002
TH3 ROB: 4 LSQ: 3 IQ: 0, IPC: 0.0002
EPOCH ENDS
EPOCH STARTS
TH0 ROB: 4 LSQ: 4 IQ: 0 IPC: 0.0002
TH1 ROB: 105 LSQ: 85 IQ: 96, IPC: 2.1955
TH2 ROB: 4 LSQ: 1 IQ: 0, IPC: 0.0002
TH3 ROB: 4 LSQ: 3 IQ: 0, IPC: 0.0002
EPOCH ENDS
EPOCH STARTS
TH0 ROB: 4 LSQ: 4 IQ: 0 IPC: 0.0002
TH1 ROB: 104 LSQ: 85 IQ: 96, IPC: 2.1955
TH2 ROB: 4 LSQ: 1 IQ: 0, IPC: 0.0002
TH3 ROB: 4 LSQ: 3 IQ: 0, IPC: 0.0002
EPOCH ENDS
EPOCH STARTS
TH0 ROB: 4 LSQ: 4 IQ: 0 IPC: 0.0002
TH1 ROB: 105 LSQ: 87 IQ: 96, IPC: 2.1955
TH2 ROB: 4 LSQ: 1 IQ: 0, IPC: 0.0002
TH3 ROB: 4 LSQ: 3 IQ: 0, IPC: 0.0002
EPOCH ENDS
EPOCH STARTS
TH0 ROB: 4 LSQ: 4 IQ: 0 IPC: 0.0002
TH1 ROB: 105 LSQ: 86 IQ: 96, IPC: 2.1955
TH2 ROB: 4 LSQ: 1 IQ: 0, IPC: 0.0002
TH3 ROB: 4 LSQ: 3 IQ: 0, IPC: 0.0002
EPOCH ENDS
EPOCH STARTS
TH0 ROB: 4 LSQ: 4 IQ: 0 IPC: 0.0002
TH1 ROB: 104 LSQ: 85 IQ: 96, IPC: 2.1955
TH2 ROB: 4 LSQ: 1 IQ: 0, IPC: 0.0002
TH3 ROB: 4 LSQ: 3 IQ: 0, IPC: 0.0002
EPOCH ENDS
EPOCH STARTS
TH0 ROB: 4 LSQ: 4 IQ: 0 IPC: 0.0002
TH1 ROB: 105 LSQ: 86 IQ: 96, IPC: 2.1955
TH2 ROB: 4 LSQ: 1 IQ: 0, IPC: 0.0002
TH3 ROB: 4 LSQ: 3 IQ: 0, IPC: 0.0002
EPOCH ENDS
EPOCH STARTS
TH0 ROB: 4 LSQ: 4 IQ: 0 IPC: 0.0002
TH1 ROB: 105 LSQ: 87 IQ: 96, IPC: 2.1955
TH2 ROB: 4 LSQ: 1 IQ: 0, IPC: 0.0002
TH3 ROB: 4 LSQ: 3 IQ: 0, IPC: 0.0002
EPOCH ENDS
EPOCH STARTS
TH0 ROB: 4 LSQ: 4 IQ: 0 IPC: 0.0002
TH1 ROB: 105 LSQ: 87 IQ: 96, IPC: 2.1955
TH2 ROB: 4 LSQ: 1 IQ: 0, IPC: 0.0002
TH3 ROB: 4 LSQ: 3 IQ: 0, IPC: 0.0002
EPOCH ENDS
EPOCH STARTS
TH0 ROB: 4 LSQ: 4 IQ: 0 IPC: 0.0002
TH1 ROB: 106 LSQ: 87 IQ: 96, IPC: 2.1955
TH2 ROB: 4 LSQ: 1 IQ: 0, IPC: 0.0002
TH3 ROB: 4 LSQ: 3 IQ: 0, IPC: 0.0002
EPOCH ENDS
EPOCH STARTS
TH0 ROB: 4 LSQ: 4 IQ: 0 IPC: 0.0002
TH1 ROB: 104 LSQ: 85 IQ: 96, IPC: 2.1955
TH2 ROB: 4 LSQ: 1 IQ: 0, IPC: 0.0002
TH3 ROB: 4 LSQ: 3 IQ: 0, IPC: 0.0002
EPOCH ENDS
EPOCH STARTS
TH0 ROB: 4 LSQ: 4 IQ: 0 IPC: 0.0002
TH1 ROB: 104 LSQ: 85 IQ: 96, IPC: 2.1955
TH2 ROB: 4 LSQ: 1 IQ: 0, IPC: 0.0002
TH3 ROB: 4 LSQ: 3 IQ: 0, IPC: 0.0002
EPOCH ENDS
EPOCH STARTS
TH0 ROB: 4 LSQ: 4 IQ: 0 IPC: 0.0002
TH1 ROB: 105 LSQ: 87 IQ: 96, IPC: 2.1955
TH2 ROB: 4 LSQ: 1 IQ: 0, IPC: 0.0002
TH3 ROB: 4 LSQ: 3 IQ: 0, IPC: 0.0002
EPOCH ENDS
EPOCH STARTS
TH0 ROB: 4 LSQ: 4 IQ: 0 IPC: 0.0002
TH1 ROB: 106 LSQ: 87 IQ: 96, IPC: 2.1955
TH2 ROB: 4 LSQ: 1 IQ: 0, IPC: 0.0002
TH3 ROB: 4 LSQ: 3 IQ: 0, IPC: 0.0002
EPOCH ENDS
EPOCH STARTS
TH0 ROB: 4 LSQ: 4 IQ: 0 IPC: 0.0002
TH1 ROB: 106 LSQ: 87 IQ: 96, IPC: 2.1956
TH2 ROB: 4 LSQ: 1 IQ: 0, IPC: 0.0002
TH3 ROB: 4 LSQ: 3 IQ: 0, IPC: 0.0002
EPOCH ENDS
EPOCH STARTS
TH0 ROB: 4 LSQ: 4 IQ: 0 IPC: 0.0002
TH1 ROB: 106 LSQ: 87 IQ: 96, IPC: 2.1956
TH2 ROB: 4 LSQ: 1 IQ: 0, IPC: 0.0002
TH3 ROB: 4 LSQ: 3 IQ: 0, IPC: 0.0002
EPOCH ENDS
EPOCH STARTS
TH0 ROB: 4 LSQ: 4 IQ: 0 IPC: 0.0002
TH1 ROB: 104 LSQ: 86 IQ: 96, IPC: 2.1956
TH2 ROB: 4 LSQ: 1 IQ: 0, IPC: 0.0002
TH3 ROB: 4 LSQ: 3 IQ: 0, IPC: 0.0002
EPOCH ENDS
EPOCH STARTS
TH0 ROB: 4 LSQ: 4 IQ: 0 IPC: 0.0002
TH1 ROB: 104 LSQ: 87 IQ: 96, IPC: 2.1956
TH2 ROB: 4 LSQ: 1 IQ: 0, IPC: 0.0002
TH3 ROB: 4 LSQ: 3 IQ: 0, IPC: 0.0002
EPOCH ENDS
EPOCH STARTS
TH0 ROB: 4 LSQ: 4 IQ: 0 IPC: 0.0002
TH1 ROB: 105 LSQ: 86 IQ: 96, IPC: 2.1956
TH2 ROB: 4 LSQ: 1 IQ: 0, IPC: 0.0002
TH3 ROB: 4 LSQ: 3 IQ: 0, IPC: 0.0002
EPOCH ENDS
EPOCH STARTS
TH0 ROB: 4 LSQ: 4 IQ: 0 IPC: 0.0002
TH1 ROB: 105 LSQ: 86 IQ: 96, IPC: 2.1956
TH2 ROB: 4 LSQ: 1 IQ: 0, IPC: 0.0002
TH3 ROB: 4 LSQ: 3 IQ: 0, IPC: 0.0002
EPOCH ENDS
EPOCH STARTS
TH0 ROB: 4 LSQ: 4 IQ: 0 IPC: 0.0002
TH1 ROB: 106 LSQ: 87 IQ: 96, IPC: 2.1956
TH2 ROB: 4 LSQ: 1 IQ: 0, IPC: 0.0002
TH3 ROB: 4 LSQ: 3 IQ: 0, IPC: 0.0002
EPOCH ENDS
EPOCH STARTS
TH0 ROB: 4 LSQ: 4 IQ: 0 IPC: 0.0002
TH1 ROB: 105 LSQ: 87 IQ: 96, IPC: 2.1956
TH2 ROB: 4 LSQ: 1 IQ: 0, IPC: 0.0002
TH3 ROB: 4 LSQ: 3 IQ: 0, IPC: 0.0002
EPOCH ENDS
EPOCH STARTS
TH0 ROB: 4 LSQ: 4 IQ: 0 IPC: 0.0002
TH1 ROB: 105 LSQ: 86 IQ: 96, IPC: 2.1956
TH2 ROB: 4 LSQ: 1 IQ: 0, IPC: 0.0002
TH3 ROB: 4 LSQ: 3 IQ: 0, IPC: 0.0002
EPOCH ENDS
EPOCH STARTS
TH0 ROB: 4 LSQ: 4 IQ: 0 IPC: 0.0002
TH1 ROB: 105 LSQ: 86 IQ: 96, IPC: 2.1956
TH2 ROB: 4 LSQ: 1 IQ: 0, IPC: 0.0002
TH3 ROB: 4 LSQ: 3 IQ: 0, IPC: 0.0002
EPOCH ENDS
EPOCH STARTS
TH0 ROB: 4 LSQ: 4 IQ: 0 IPC: 0.0002
TH1 ROB: 105 LSQ: 86 IQ: 96, IPC: 2.1956
TH2 ROB: 4 LSQ: 1 IQ: 0, IPC: 0.0002
TH3 ROB: 4 LSQ: 3 IQ: 0, IPC: 0.0002
EPOCH ENDS
EPOCH STARTS
TH0 ROB: 4 LSQ: 4 IQ: 0 IPC: 0.0002
TH1 ROB: 105 LSQ: 86 IQ: 96, IPC: 2.1956
TH2 ROB: 4 LSQ: 1 IQ: 0, IPC: 0.0002
TH3 ROB: 4 LSQ: 3 IQ: 0, IPC: 0.0002
EPOCH ENDS
EPOCH STARTS
TH0 ROB: 4 LSQ: 4 IQ: 0 IPC: 0.0002
TH1 ROB: 105 LSQ: 87 IQ: 96, IPC: 2.1956
TH2 ROB: 4 LSQ: 1 IQ: 0, IPC: 0.0002
TH3 ROB: 4 LSQ: 3 IQ: 0, IPC: 0.0002
EPOCH ENDS
EPOCH STARTS
TH0 ROB: 4 LSQ: 4 IQ: 0 IPC: 0.0002
TH1 ROB: 105 LSQ: 86 IQ: 96, IPC: 2.1956
TH2 ROB: 4 LSQ: 1 IQ: 0, IPC: 0.0002
TH3 ROB: 4 LSQ: 3 IQ: 0, IPC: 0.0002
EPOCH ENDS
EPOCH STARTS
TH0 ROB: 4 LSQ: 4 IQ: 0 IPC: 0.0002
TH1 ROB: 105 LSQ: 86 IQ: 96, IPC: 2.1956
TH2 ROB: 4 LSQ: 1 IQ: 0, IPC: 0.0002
TH3 ROB: 4 LSQ: 3 IQ: 0, IPC: 0.0002
EPOCH ENDS
EPOCH STARTS
TH0 ROB: 4 LSQ: 4 IQ: 0 IPC: 0.0002
TH1 ROB: 105 LSQ: 86 IQ: 96, IPC: 2.1956
TH2 ROB: 4 LSQ: 1 IQ: 0, IPC: 0.0002
TH3 ROB: 4 LSQ: 3 IQ: 0, IPC: 0.0002
EPOCH ENDS
EPOCH STARTS
TH0 ROB: 4 LSQ: 4 IQ: 0 IPC: 0.0002
TH1 ROB: 105 LSQ: 87 IQ: 96, IPC: 2.1956
TH2 ROB: 4 LSQ: 1 IQ: 0, IPC: 0.0002
TH3 ROB: 4 LSQ: 3 IQ: 0, IPC: 0.0002
EPOCH ENDS
EPOCH STARTS
TH0 ROB: 4 LSQ: 4 IQ: 0 IPC: 0.0002
TH1 ROB: 105 LSQ: 88 IQ: 96, IPC: 2.1956
TH2 ROB: 4 LSQ: 1 IQ: 0, IPC: 0.0001
TH3 ROB: 4 LSQ: 3 IQ: 0, IPC: 0.0002
EPOCH ENDS
EPOCH STARTS
TH0 ROB: 4 LSQ: 4 IQ: 0 IPC: 0.0002
TH1 ROB: 104 LSQ: 85 IQ: 96, IPC: 2.1956
TH2 ROB: 4 LSQ: 1 IQ: 0, IPC: 0.0001
TH3 ROB: 4 LSQ: 3 IQ: 0, IPC: 0.0002
EPOCH ENDS
EPOCH STARTS
TH0 ROB: 4 LSQ: 4 IQ: 0 IPC: 0.0002
TH1 ROB: 104 LSQ: 85 IQ: 96, IPC: 2.1957
TH2 ROB: 4 LSQ: 1 IQ: 0, IPC: 0.0001
TH3 ROB: 4 LSQ: 3 IQ: 0, IPC: 0.0002
EPOCH ENDS
EPOCH STARTS
TH0 ROB: 4 LSQ: 4 IQ: 0 IPC: 0.0002
TH1 ROB: 105 LSQ: 86 IQ: 96, IPC: 2.1957
TH2 ROB: 4 LSQ: 1 IQ: 0, IPC: 0.0001
TH3 ROB: 4 LSQ: 3 IQ: 0, IPC: 0.0002
EPOCH ENDS
EPOCH STARTS
TH0 ROB: 4 LSQ: 4 IQ: 0 IPC: 0.0002
TH1 ROB: 105 LSQ: 87 IQ: 96, IPC: 2.1957
TH2 ROB: 4 LSQ: 1 IQ: 0, IPC: 0.0001
TH3 ROB: 4 LSQ: 3 IQ: 0, IPC: 0.0002
EPOCH ENDS
EPOCH STARTS
TH0 ROB: 4 LSQ: 4 IQ: 0 IPC: 0.0002
TH1 ROB: 106 LSQ: 87 IQ: 96, IPC: 2.1957
TH2 ROB: 4 LSQ: 1 IQ: 0, IPC: 0.0001
TH3 ROB: 4 LSQ: 3 IQ: 0, IPC: 0.0002
EPOCH ENDS
EPOCH STARTS
TH0 ROB: 4 LSQ: 4 IQ: 0 IPC: 0.0002
TH1 ROB: 104 LSQ: 85 IQ: 96, IPC: 2.1957
TH2 ROB: 4 LSQ: 1 IQ: 0, IPC: 0.0001
TH3 ROB: 4 LSQ: 3 IQ: 0, IPC: 0.0001
EPOCH ENDS
EPOCH STARTS
TH0 ROB: 4 LSQ: 4 IQ: 0 IPC: 0.0002
TH1 ROB: 104 LSQ: 85 IQ: 96, IPC: 2.1957
TH2 ROB: 4 LSQ: 1 IQ: 0, IPC: 0.0001
TH3 ROB: 4 LSQ: 3 IQ: 0, IPC: 0.0001
EPOCH ENDS
EPOCH STARTS
TH0 ROB: 4 LSQ: 4 IQ: 0 IPC: 0.0002
TH1 ROB: 104 LSQ: 85 IQ: 96, IPC: 2.1957
TH2 ROB: 4 LSQ: 1 IQ: 0, IPC: 0.0001
TH3 ROB: 4 LSQ: 3 IQ: 0, IPC: 0.0001
EPOCH ENDS
EPOCH STARTS
TH0 ROB: 4 LSQ: 4 IQ: 0 IPC: 0.0002
TH1 ROB: 105 LSQ: 87 IQ: 96, IPC: 2.1957
TH2 ROB: 4 LSQ: 1 IQ: 0, IPC: 0.0001
TH3 ROB: 4 LSQ: 3 IQ: 0, IPC: 0.0001
EPOCH ENDS
EPOCH STARTS
TH0 ROB: 4 LSQ: 4 IQ: 0 IPC: 0.0002
TH1 ROB: 105 LSQ: 86 IQ: 96, IPC: 2.1957
TH2 ROB: 4 LSQ: 1 IQ: 0, IPC: 0.0001
TH3 ROB: 4 LSQ: 3 IQ: 0, IPC: 0.0001
EPOCH ENDS
EPOCH STARTS
TH0 ROB: 4 LSQ: 4 IQ: 0 IPC: 0.0002
TH1 ROB: 104 LSQ: 85 IQ: 96, IPC: 2.1957
TH2 ROB: 4 LSQ: 1 IQ: 0, IPC: 0.0001
TH3 ROB: 4 LSQ: 3 IQ: 0, IPC: 0.0001
EPOCH ENDS
EPOCH STARTS
TH0 ROB: 4 LSQ: 4 IQ: 0 IPC: 0.0002
TH1 ROB: 104 LSQ: 85 IQ: 96, IPC: 2.1957
TH2 ROB: 4 LSQ: 1 IQ: 0, IPC: 0.0001
TH3 ROB: 4 LSQ: 3 IQ: 0, IPC: 0.0001
EPOCH ENDS
EPOCH STARTS
TH0 ROB: 4 LSQ: 4 IQ: 0 IPC: 0.0002
TH1 ROB: 104 LSQ: 87 IQ: 96, IPC: 2.1957
TH2 ROB: 4 LSQ: 1 IQ: 0, IPC: 0.0001
TH3 ROB: 4 LSQ: 3 IQ: 0, IPC: 0.0001
EPOCH ENDS
EPOCH STARTS
TH0 ROB: 4 LSQ: 4 IQ: 0 IPC: 0.0002
TH1 ROB: 105 LSQ: 87 IQ: 96, IPC: 2.1957
TH2 ROB: 4 LSQ: 1 IQ: 0, IPC: 0.0001
TH3 ROB: 4 LSQ: 3 IQ: 0, IPC: 0.0001
EPOCH ENDS
EPOCH STARTS
TH0 ROB: 4 LSQ: 4 IQ: 0 IPC: 0.0002
TH1 ROB: 105 LSQ: 85 IQ: 96, IPC: 2.1957
TH2 ROB: 4 LSQ: 1 IQ: 0, IPC: 0.0001
TH3 ROB: 4 LSQ: 3 IQ: 0, IPC: 0.0001
EPOCH ENDS
EPOCH STARTS
TH0 ROB: 4 LSQ: 4 IQ: 0 IPC: 0.0002
TH1 ROB: 104 LSQ: 85 IQ: 96, IPC: 2.1957
TH2 ROB: 4 LSQ: 1 IQ: 0, IPC: 0.0001
TH3 ROB: 4 LSQ: 3 IQ: 0, IPC: 0.0001
EPOCH ENDS
EPOCH STARTS
TH0 ROB: 4 LSQ: 4 IQ: 0 IPC: 0.0002
TH1 ROB: 104 LSQ: 85 IQ: 96, IPC: 2.1957
TH2 ROB: 4 LSQ: 1 IQ: 0, IPC: 0.0001
TH3 ROB: 4 LSQ: 3 IQ: 0, IPC: 0.0001
EPOCH ENDS
EPOCH STARTS
TH0 ROB: 4 LSQ: 4 IQ: 0 IPC: 0.0001
TH1 ROB: 104 LSQ: 86 IQ: 96, IPC: 2.1957
TH2 ROB: 4 LSQ: 1 IQ: 0, IPC: 0.0001
TH3 ROB: 4 LSQ: 3 IQ: 0, IPC: 0.0001
EPOCH ENDS
EPOCH STARTS
TH0 ROB: 4 LSQ: 4 IQ: 0 IPC: 0.0001
TH1 ROB: 107 LSQ: 88 IQ: 96, IPC: 2.1957
TH2 ROB: 4 LSQ: 1 IQ: 0, IPC: 0.0001
TH3 ROB: 4 LSQ: 3 IQ: 0, IPC: 0.0001
EPOCH ENDS
EPOCH STARTS
TH0 ROB: 4 LSQ: 4 IQ: 0 IPC: 0.0001
TH1 ROB: 105 LSQ: 86 IQ: 96, IPC: 2.1957
TH2 ROB: 4 LSQ: 1 IQ: 0, IPC: 0.0001
TH3 ROB: 4 LSQ: 3 IQ: 0, IPC: 0.0001
EPOCH ENDS
EPOCH STARTS
TH0 ROB: 4 LSQ: 4 IQ: 0 IPC: 0.0001
TH1 ROB: 105 LSQ: 85 IQ: 96, IPC: 2.1957
TH2 ROB: 4 LSQ: 1 IQ: 0, IPC: 0.0001
TH3 ROB: 4 LSQ: 3 IQ: 0, IPC: 0.0001
EPOCH ENDS
EPOCH STARTS
TH0 ROB: 4 LSQ: 4 IQ: 0 IPC: 0.0001
TH1 ROB: 104 LSQ: 85 IQ: 96, IPC: 2.1957
TH2 ROB: 4 LSQ: 1 IQ: 0, IPC: 0.0001
TH3 ROB: 4 LSQ: 3 IQ: 0, IPC: 0.0001
EPOCH ENDS
EPOCH STARTS
TH0 ROB: 4 LSQ: 4 IQ: 0 IPC: 0.0001
TH1 ROB: 105 LSQ: 87 IQ: 96, IPC: 2.1957
TH2 ROB: 4 LSQ: 1 IQ: 0, IPC: 0.0001
TH3 ROB: 4 LSQ: 3 IQ: 0, IPC: 0.0001
EPOCH ENDS
EPOCH STARTS
TH0 ROB: 4 LSQ: 4 IQ: 0 IPC: 0.0001
TH1 ROB: 105 LSQ: 86 IQ: 96, IPC: 2.1957
TH2 ROB: 4 LSQ: 1 IQ: 0, IPC: 0.0001
TH3 ROB: 4 LSQ: 3 IQ: 0, IPC: 0.0001
EPOCH ENDS
EPOCH STARTS
TH0 ROB: 4 LSQ: 4 IQ: 0 IPC: 0.0001
TH1 ROB: 104 LSQ: 85 IQ: 96, IPC: 2.1957
TH2 ROB: 4 LSQ: 1 IQ: 0, IPC: 0.0001
TH3 ROB: 4 LSQ: 3 IQ: 0, IPC: 0.0001
EPOCH ENDS
EPOCH STARTS
TH0 ROB: 4 LSQ: 4 IQ: 0 IPC: 0.0001
TH1 ROB: 105 LSQ: 86 IQ: 96, IPC: 2.1957
TH2 ROB: 4 LSQ: 1 IQ: 0, IPC: 0.0001
TH3 ROB: 4 LSQ: 3 IQ: 0, IPC: 0.0001
EPOCH ENDS
EPOCH STARTS
TH0 ROB: 4 LSQ: 4 IQ: 0 IPC: 0.0001
TH1 ROB: 105 LSQ: 87 IQ: 96, IPC: 2.1957
TH2 ROB: 4 LSQ: 1 IQ: 0, IPC: 0.0001
TH3 ROB: 4 LSQ: 3 IQ: 0, IPC: 0.0001
EPOCH ENDS
EPOCH STARTS
TH0 ROB: 4 LSQ: 4 IQ: 0 IPC: 0.0001
TH1 ROB: 105 LSQ: 87 IQ: 96, IPC: 2.1957
TH2 ROB: 4 LSQ: 1 IQ: 0, IPC: 0.0001
TH3 ROB: 4 LSQ: 3 IQ: 0, IPC: 0.0001
EPOCH ENDS
EPOCH STARTS
TH0 ROB: 4 LSQ: 4 IQ: 0 IPC: 0.0001
TH1 ROB: 106 LSQ: 87 IQ: 96, IPC: 2.1957
TH2 ROB: 4 LSQ: 1 IQ: 0, IPC: 0.0001
TH3 ROB: 4 LSQ: 3 IQ: 0, IPC: 0.0001
EPOCH ENDS
EPOCH STARTS
TH0 ROB: 4 LSQ: 4 IQ: 0 IPC: 0.0001
TH1 ROB: 104 LSQ: 85 IQ: 96, IPC: 2.1957
TH2 ROB: 4 LSQ: 1 IQ: 0, IPC: 0.0001
TH3 ROB: 4 LSQ: 3 IQ: 0, IPC: 0.0001
EPOCH ENDS
EPOCH STARTS
TH0 ROB: 4 LSQ: 4 IQ: 0 IPC: 0.0001
TH1 ROB: 104 LSQ: 85 IQ: 96, IPC: 2.1957
TH2 ROB: 4 LSQ: 1 IQ: 0, IPC: 0.0001
TH3 ROB: 4 LSQ: 3 IQ: 0, IPC: 0.0001
EPOCH ENDS
EPOCH STARTS
TH0 ROB: 4 LSQ: 4 IQ: 0 IPC: 0.0001
TH1 ROB: 105 LSQ: 87 IQ: 96, IPC: 2.1957
TH2 ROB: 4 LSQ: 1 IQ: 0, IPC: 0.0001
TH3 ROB: 4 LSQ: 3 IQ: 0, IPC: 0.0001
EPOCH ENDS
EPOCH STARTS
TH0 ROB: 4 LSQ: 4 IQ: 0 IPC: 0.0001
TH1 ROB: 106 LSQ: 87 IQ: 96, IPC: 2.1957
TH2 ROB: 4 LSQ: 1 IQ: 0, IPC: 0.0001
TH3 ROB: 4 LSQ: 3 IQ: 0, IPC: 0.0001
EPOCH ENDS
EPOCH STARTS
TH0 ROB: 4 LSQ: 4 IQ: 0 IPC: 0.0001
TH1 ROB: 106 LSQ: 87 IQ: 96, IPC: 2.1958
TH2 ROB: 4 LSQ: 1 IQ: 0, IPC: 0.0001
TH3 ROB: 4 LSQ: 3 IQ: 0, IPC: 0.0001
EPOCH ENDS
EPOCH STARTS
TH0 ROB: 4 LSQ: 4 IQ: 0 IPC: 0.0001
TH1 ROB: 106 LSQ: 87 IQ: 96, IPC: 2.1958
TH2 ROB: 4 LSQ: 1 IQ: 0, IPC: 0.0001
TH3 ROB: 4 LSQ: 3 IQ: 0, IPC: 0.0001
EPOCH ENDS
EPOCH STARTS
TH0 ROB: 4 LSQ: 4 IQ: 0 IPC: 0.0001
TH1 ROB: 104 LSQ: 86 IQ: 96, IPC: 2.1958
TH2 ROB: 4 LSQ: 1 IQ: 0, IPC: 0.0001
TH3 ROB: 4 LSQ: 3 IQ: 0, IPC: 0.0001
EPOCH ENDS
EPOCH STARTS
TH0 ROB: 4 LSQ: 4 IQ: 0 IPC: 0.0001
TH1 ROB: 104 LSQ: 87 IQ: 96, IPC: 2.1958
TH2 ROB: 4 LSQ: 1 IQ: 0, IPC: 0.0001
TH3 ROB: 4 LSQ: 3 IQ: 0, IPC: 0.0001
EPOCH ENDS
EPOCH STARTS
TH0 ROB: 4 LSQ: 4 IQ: 0 IPC: 0.0001
TH1 ROB: 105 LSQ: 86 IQ: 96, IPC: 2.1958
TH2 ROB: 4 LSQ: 1 IQ: 0, IPC: 0.0001
TH3 ROB: 4 LSQ: 3 IQ: 0, IPC: 0.0001
EPOCH ENDS
EPOCH STARTS
TH0 ROB: 4 LSQ: 4 IQ: 0 IPC: 0.0001
TH1 ROB: 105 LSQ: 86 IQ: 96, IPC: 2.1958
TH2 ROB: 4 LSQ: 1 IQ: 0, IPC: 0.0001
TH3 ROB: 4 LSQ: 3 IQ: 0, IPC: 0.0001
EPOCH ENDS
EPOCH STARTS
TH0 ROB: 4 LSQ: 4 IQ: 0 IPC: 0.0001
TH1 ROB: 106 LSQ: 87 IQ: 96, IPC: 2.1958
TH2 ROB: 4 LSQ: 1 IQ: 0, IPC: 0.0001
TH3 ROB: 4 LSQ: 3 IQ: 0, IPC: 0.0001
EPOCH ENDS
EPOCH STARTS
TH0 ROB: 4 LSQ: 4 IQ: 0 IPC: 0.0001
TH1 ROB: 105 LSQ: 87 IQ: 96, IPC: 2.1958
TH2 ROB: 4 LSQ: 1 IQ: 0, IPC: 0.0001
TH3 ROB: 4 LSQ: 3 IQ: 0, IPC: 0.0001
EPOCH ENDS
EPOCH STARTS
TH0 ROB: 4 LSQ: 4 IQ: 0 IPC: 0.0001
TH1 ROB: 105 LSQ: 86 IQ: 96, IPC: 2.1958
TH2 ROB: 4 LSQ: 1 IQ: 0, IPC: 0.0001
TH3 ROB: 4 LSQ: 3 IQ: 0, IPC: 0.0001
EPOCH ENDS
EPOCH STARTS
TH0 ROB: 4 LSQ: 4 IQ: 0 IPC: 0.0001
TH1 ROB: 105 LSQ: 86 IQ: 96, IPC: 2.1958
TH2 ROB: 4 LSQ: 1 IQ: 0, IPC: 0.0001
TH3 ROB: 4 LSQ: 3 IQ: 0, IPC: 0.0001
EPOCH ENDS
EPOCH STARTS
TH0 ROB: 4 LSQ: 4 IQ: 0 IPC: 0.0001
TH1 ROB: 105 LSQ: 86 IQ: 96, IPC: 2.1958
TH2 ROB: 4 LSQ: 1 IQ: 0, IPC: 0.0001
TH3 ROB: 4 LSQ: 3 IQ: 0, IPC: 0.0001
EPOCH ENDS
EPOCH STARTS
TH0 ROB: 4 LSQ: 4 IQ: 0 IPC: 0.0001
TH1 ROB: 105 LSQ: 86 IQ: 96, IPC: 2.1958
TH2 ROB: 4 LSQ: 1 IQ: 0, IPC: 0.0001
TH3 ROB: 4 LSQ: 3 IQ: 0, IPC: 0.0001
EPOCH ENDS
EPOCH STARTS
TH0 ROB: 4 LSQ: 4 IQ: 0 IPC: 0.0001
TH1 ROB: 105 LSQ: 87 IQ: 96, IPC: 2.1958
TH2 ROB: 4 LSQ: 1 IQ: 0, IPC: 0.0001
TH3 ROB: 4 LSQ: 3 IQ: 0, IPC: 0.0001
EPOCH ENDS
EPOCH STARTS
TH0 ROB: 4 LSQ: 4 IQ: 0 IPC: 0.0001
TH1 ROB: 105 LSQ: 86 IQ: 96, IPC: 2.1958
TH2 ROB: 4 LSQ: 1 IQ: 0, IPC: 0.0001
TH3 ROB: 4 LSQ: 3 IQ: 0, IPC: 0.0001
EPOCH ENDS
EPOCH STARTS
TH0 ROB: 4 LSQ: 4 IQ: 0 IPC: 0.0001
TH1 ROB: 105 LSQ: 86 IQ: 96, IPC: 2.1958
TH2 ROB: 4 LSQ: 1 IQ: 0, IPC: 0.0001
TH3 ROB: 4 LSQ: 3 IQ: 0, IPC: 0.0001
EPOCH ENDS
EPOCH STARTS
TH0 ROB: 4 LSQ: 4 IQ: 0 IPC: 0.0001
TH1 ROB: 105 LSQ: 86 IQ: 96, IPC: 2.1958
TH2 ROB: 4 LSQ: 1 IQ: 0, IPC: 0.0001
TH3 ROB: 4 LSQ: 3 IQ: 0, IPC: 0.0001
EPOCH ENDS
EPOCH STARTS
TH0 ROB: 4 LSQ: 4 IQ: 0 IPC: 0.0001
TH1 ROB: 105 LSQ: 87 IQ: 96, IPC: 2.1958
TH2 ROB: 4 LSQ: 1 IQ: 0, IPC: 0.0001
TH3 ROB: 4 LSQ: 3 IQ: 0, IPC: 0.0001
EPOCH ENDS
EPOCH STARTS
TH0 ROB: 4 LSQ: 4 IQ: 0 IPC: 0.0001
TH1 ROB: 105 LSQ: 88 IQ: 96, IPC: 2.1958
TH2 ROB: 4 LSQ: 1 IQ: 0, IPC: 0.0001
TH3 ROB: 4 LSQ: 3 IQ: 0, IPC: 0.0001
EPOCH ENDS
EPOCH STARTS
TH0 ROB: 4 LSQ: 4 IQ: 0 IPC: 0.0001
TH1 ROB: 104 LSQ: 85 IQ: 96, IPC: 2.1958
TH2 ROB: 4 LSQ: 1 IQ: 0, IPC: 0.0001
TH3 ROB: 4 LSQ: 3 IQ: 0, IPC: 0.0001
EPOCH ENDS
EPOCH STARTS
TH0 ROB: 4 LSQ: 4 IQ: 0 IPC: 0.0001
TH1 ROB: 104 LSQ: 85 IQ: 96, IPC: 2.1958
TH2 ROB: 4 LSQ: 1 IQ: 0, IPC: 0.0001
TH3 ROB: 4 LSQ: 3 IQ: 0, IPC: 0.0001
EPOCH ENDS
EPOCH STARTS
TH0 ROB: 4 LSQ: 4 IQ: 0 IPC: 0.0001
TH1 ROB: 105 LSQ: 86 IQ: 96, IPC: 2.1958
TH2 ROB: 4 LSQ: 1 IQ: 0, IPC: 0.0001
TH3 ROB: 4 LSQ: 3 IQ: 0, IPC: 0.0001
EPOCH ENDS
EPOCH STARTS
TH0 ROB: 4 LSQ: 4 IQ: 0 IPC: 0.0001
TH1 ROB: 105 LSQ: 87 IQ: 96, IPC: 2.1958
TH2 ROB: 4 LSQ: 1 IQ: 0, IPC: 0.0001
TH3 ROB: 4 LSQ: 3 IQ: 0, IPC: 0.0001
EPOCH ENDS
EPOCH STARTS
TH0 ROB: 4 LSQ: 4 IQ: 0 IPC: 0.0001
TH1 ROB: 106 LSQ: 87 IQ: 96, IPC: 2.1958
TH2 ROB: 4 LSQ: 1 IQ: 0, IPC: 0.0001
TH3 ROB: 4 LSQ: 3 IQ: 0, IPC: 0.0001
EPOCH ENDS
EPOCH STARTS
TH0 ROB: 4 LSQ: 4 IQ: 0 IPC: 0.0001
TH1 ROB: 104 LSQ: 85 IQ: 96, IPC: 2.1958
TH2 ROB: 4 LSQ: 1 IQ: 0, IPC: 0.0001
TH3 ROB: 4 LSQ: 3 IQ: 0, IPC: 0.0001
EPOCH ENDS
EPOCH STARTS
TH0 ROB: 4 LSQ: 4 IQ: 0 IPC: 0.0001
TH1 ROB: 104 LSQ: 85 IQ: 96, IPC: 2.1958
TH2 ROB: 4 LSQ: 1 IQ: 0, IPC: 0.0001
TH3 ROB: 4 LSQ: 3 IQ: 0, IPC: 0.0001
EPOCH ENDS
EPOCH STARTS
TH0 ROB: 4 LSQ: 4 IQ: 0 IPC: 0.0001
TH1 ROB: 104 LSQ: 85 IQ: 96, IPC: 2.1958
TH2 ROB: 4 LSQ: 1 IQ: 0, IPC: 0.0001
TH3 ROB: 4 LSQ: 3 IQ: 0, IPC: 0.0001
EPOCH ENDS
EPOCH STARTS
TH0 ROB: 4 LSQ: 4 IQ: 0 IPC: 0.0001
TH1 ROB: 105 LSQ: 87 IQ: 96, IPC: 2.1958
TH2 ROB: 4 LSQ: 1 IQ: 0, IPC: 0.0001
TH3 ROB: 4 LSQ: 3 IQ: 0, IPC: 0.0001
EPOCH ENDS
EPOCH STARTS
TH0 ROB: 4 LSQ: 4 IQ: 0 IPC: 0.0001
TH1 ROB: 105 LSQ: 86 IQ: 96, IPC: 2.1958
TH2 ROB: 4 LSQ: 1 IQ: 0, IPC: 0.0001
TH3 ROB: 4 LSQ: 3 IQ: 0, IPC: 0.0001
EPOCH ENDS
EPOCH STARTS
TH0 ROB: 4 LSQ: 4 IQ: 0 IPC: 0.0001
TH1 ROB: 104 LSQ: 85 IQ: 96, IPC: 2.1958
TH2 ROB: 4 LSQ: 1 IQ: 0, IPC: 0.0001
TH3 ROB: 4 LSQ: 3 IQ: 0, IPC: 0.0001
EPOCH ENDS
EPOCH STARTS
TH0 ROB: 4 LSQ: 4 IQ: 0 IPC: 0.0001
TH1 ROB: 104 LSQ: 85 IQ: 96, IPC: 2.1958
TH2 ROB: 4 LSQ: 1 IQ: 0, IPC: 0.0001
TH3 ROB: 4 LSQ: 3 IQ: 0, IPC: 0.0001
EPOCH ENDS
EPOCH STARTS
TH0 ROB: 4 LSQ: 4 IQ: 0 IPC: 0.0001
TH1 ROB: 104 LSQ: 87 IQ: 96, IPC: 2.1958
TH2 ROB: 4 LSQ: 1 IQ: 0, IPC: 0.0001
TH3 ROB: 4 LSQ: 3 IQ: 0, IPC: 0.0001
EPOCH ENDS
EPOCH STARTS
TH0 ROB: 4 LSQ: 4 IQ: 0 IPC: 0.0001
TH1 ROB: 105 LSQ: 87 IQ: 96, IPC: 2.1958
TH2 ROB: 4 LSQ: 1 IQ: 0, IPC: 0.0001
TH3 ROB: 4 LSQ: 3 IQ: 0, IPC: 0.0001
EPOCH ENDS
EPOCH STARTS
TH0 ROB: 4 LSQ: 4 IQ: 0 IPC: 0.0001
TH1 ROB: 105 LSQ: 85 IQ: 96, IPC: 2.1958
TH2 ROB: 4 LSQ: 1 IQ: 0, IPC: 0.0001
TH3 ROB: 4 LSQ: 3 IQ: 0, IPC: 0.0001
EPOCH ENDS
EPOCH STARTS
TH0 ROB: 4 LSQ: 4 IQ: 0 IPC: 0.0001
TH1 ROB: 104 LSQ: 85 IQ: 96, IPC: 2.1958
TH2 ROB: 4 LSQ: 1 IQ: 0, IPC: 0.0001
TH3 ROB: 4 LSQ: 3 IQ: 0, IPC: 0.0001
EPOCH ENDS
EPOCH STARTS
TH0 ROB: 4 LSQ: 4 IQ: 0 IPC: 0.0001
TH1 ROB: 104 LSQ: 85 IQ: 96, IPC: 2.1958
TH2 ROB: 4 LSQ: 1 IQ: 0, IPC: 0.0001
TH3 ROB: 4 LSQ: 3 IQ: 0, IPC: 0.0001
EPOCH ENDS
EPOCH STARTS
TH0 ROB: 4 LSQ: 4 IQ: 0 IPC: 0.0001
TH1 ROB: 104 LSQ: 86 IQ: 96, IPC: 2.1958
TH2 ROB: 4 LSQ: 1 IQ: 0, IPC: 0.0001
TH3 ROB: 4 LSQ: 3 IQ: 0, IPC: 0.0001
EPOCH ENDS
EPOCH STARTS
TH0 ROB: 4 LSQ: 4 IQ: 0 IPC: 0.0001
TH1 ROB: 107 LSQ: 88 IQ: 96, IPC: 2.1958
TH2 ROB: 4 LSQ: 1 IQ: 0, IPC: 0.0001
TH3 ROB: 4 LSQ: 3 IQ: 0, IPC: 0.0001
EPOCH ENDS
EPOCH STARTS
TH0 ROB: 4 LSQ: 4 IQ: 0 IPC: 0.0001
TH1 ROB: 105 LSQ: 86 IQ: 96, IPC: 2.1958
TH2 ROB: 4 LSQ: 1 IQ: 0, IPC: 0.0001
TH3 ROB: 4 LSQ: 3 IQ: 0, IPC: 0.0001
EPOCH ENDS
EPOCH STARTS
TH0 ROB: 4 LSQ: 4 IQ: 0 IPC: 0.0001
TH1 ROB: 105 LSQ: 85 IQ: 96, IPC: 2.1958
TH2 ROB: 4 LSQ: 1 IQ: 0, IPC: 0.0001
TH3 ROB: 4 LSQ: 3 IQ: 0, IPC: 0.0001
EPOCH ENDS
EPOCH STARTS
TH0 ROB: 4 LSQ: 4 IQ: 0 IPC: 0.0001
TH1 ROB: 104 LSQ: 85 IQ: 96, IPC: 2.1958
TH2 ROB: 4 LSQ: 1 IQ: 0, IPC: 0.0001
TH3 ROB: 4 LSQ: 3 IQ: 0, IPC: 0.0001
EPOCH ENDS
EPOCH STARTS
TH0 ROB: 4 LSQ: 4 IQ: 0 IPC: 0.0001
TH1 ROB: 105 LSQ: 87 IQ: 96, IPC: 2.1958
TH2 ROB: 4 LSQ: 1 IQ: 0, IPC: 0.0001
TH3 ROB: 4 LSQ: 3 IQ: 0, IPC: 0.0001
EPOCH ENDS
EPOCH STARTS
TH0 ROB: 4 LSQ: 4 IQ: 0 IPC: 0.0001
TH1 ROB: 105 LSQ: 86 IQ: 96, IPC: 2.1958
TH2 ROB: 4 LSQ: 1 IQ: 0, IPC: 0.0001
TH3 ROB: 4 LSQ: 3 IQ: 0, IPC: 0.0001
EPOCH ENDS
EPOCH STARTS
TH0 ROB: 4 LSQ: 4 IQ: 0 IPC: 0.0001
TH1 ROB: 104 LSQ: 85 IQ: 96, IPC: 2.1958
TH2 ROB: 4 LSQ: 1 IQ: 0, IPC: 0.0001
TH3 ROB: 4 LSQ: 3 IQ: 0, IPC: 0.0001
EPOCH ENDS
EPOCH STARTS
TH0 ROB: 4 LSQ: 4 IQ: 0 IPC: 0.0001
TH1 ROB: 105 LSQ: 86 IQ: 96, IPC: 2.1958
TH2 ROB: 4 LSQ: 1 IQ: 0, IPC: 0.0001
TH3 ROB: 4 LSQ: 3 IQ: 0, IPC: 0.0001
EPOCH ENDS
EPOCH STARTS
TH0 ROB: 4 LSQ: 4 IQ: 0 IPC: 0.0001
TH1 ROB: 105 LSQ: 87 IQ: 96, IPC: 2.1958
TH2 ROB: 4 LSQ: 1 IQ: 0, IPC: 0.0001
TH3 ROB: 4 LSQ: 3 IQ: 0, IPC: 0.0001
EPOCH ENDS
EPOCH STARTS
TH0 ROB: 4 LSQ: 4 IQ: 0 IPC: 0.0001
TH1 ROB: 105 LSQ: 87 IQ: 96, IPC: 2.1958
TH2 ROB: 4 LSQ: 1 IQ: 0, IPC: 0.0001
TH3 ROB: 4 LSQ: 3 IQ: 0, IPC: 0.0001
EPOCH ENDS
EPOCH STARTS
TH0 ROB: 4 LSQ: 4 IQ: 0 IPC: 0.0001
TH1 ROB: 106 LSQ: 87 IQ: 96, IPC: 2.1958
TH2 ROB: 4 LSQ: 1 IQ: 0, IPC: 0.0001
TH3 ROB: 4 LSQ: 3 IQ: 0, IPC: 0.0001
EPOCH ENDS
EPOCH STARTS
TH0 ROB: 4 LSQ: 4 IQ: 0 IPC: 0.0001
TH1 ROB: 104 LSQ: 85 IQ: 96, IPC: 2.1958
TH2 ROB: 4 LSQ: 1 IQ: 0, IPC: 0.0001
TH3 ROB: 4 LSQ: 3 IQ: 0, IPC: 0.0001
EPOCH ENDS
EPOCH STARTS
TH0 ROB: 4 LSQ: 4 IQ: 0 IPC: 0.0001
TH1 ROB: 104 LSQ: 85 IQ: 96, IPC: 2.1958
TH2 ROB: 4 LSQ: 1 IQ: 0, IPC: 0.0001
TH3 ROB: 4 LSQ: 3 IQ: 0, IPC: 0.0001
EPOCH ENDS
EPOCH STARTS
TH0 ROB: 4 LSQ: 4 IQ: 0 IPC: 0.0001
TH1 ROB: 105 LSQ: 87 IQ: 96, IPC: 2.1958
TH2 ROB: 4 LSQ: 1 IQ: 0, IPC: 0.0001
TH3 ROB: 4 LSQ: 3 IQ: 0, IPC: 0.0001
EPOCH ENDS
EPOCH STARTS
TH0 ROB: 4 LSQ: 4 IQ: 0 IPC: 0.0001
TH1 ROB: 106 LSQ: 87 IQ: 96, IPC: 2.1958
TH2 ROB: 4 LSQ: 1 IQ: 0, IPC: 0.0001
TH3 ROB: 4 LSQ: 3 IQ: 0, IPC: 0.0001
EPOCH ENDS
EPOCH STARTS
TH0 ROB: 4 LSQ: 4 IQ: 0 IPC: 0.0001
TH1 ROB: 106 LSQ: 87 IQ: 96, IPC: 2.1958
TH2 ROB: 4 LSQ: 1 IQ: 0, IPC: 0.0001
TH3 ROB: 4 LSQ: 3 IQ: 0, IPC: 0.0001
EPOCH ENDS
EPOCH STARTS
TH0 ROB: 4 LSQ: 4 IQ: 0 IPC: 0.0001
TH1 ROB: 106 LSQ: 87 IQ: 96, IPC: 2.1958
TH2 ROB: 4 LSQ: 1 IQ: 0, IPC: 0.0001
TH3 ROB: 4 LSQ: 3 IQ: 0, IPC: 0.0001
EPOCH ENDS
EPOCH STARTS
TH0 ROB: 4 LSQ: 4 IQ: 0 IPC: 0.0001
TH1 ROB: 104 LSQ: 86 IQ: 96, IPC: 2.1958
TH2 ROB: 4 LSQ: 1 IQ: 0, IPC: 0.0001
TH3 ROB: 4 LSQ: 3 IQ: 0, IPC: 0.0001
EPOCH ENDS
EPOCH STARTS
TH0 ROB: 4 LSQ: 4 IQ: 0 IPC: 0.0001
TH1 ROB: 104 LSQ: 87 IQ: 96, IPC: 2.1958
TH2 ROB: 4 LSQ: 1 IQ: 0, IPC: 0.0001
TH3 ROB: 4 LSQ: 3 IQ: 0, IPC: 0.0001
EPOCH ENDS
EPOCH STARTS
TH0 ROB: 4 LSQ: 4 IQ: 0 IPC: 0.0001
TH1 ROB: 105 LSQ: 86 IQ: 96, IPC: 2.1958
TH2 ROB: 4 LSQ: 1 IQ: 0, IPC: 0.0001
TH3 ROB: 4 LSQ: 3 IQ: 0, IPC: 0.0001
EPOCH ENDS
EPOCH STARTS
TH0 ROB: 4 LSQ: 4 IQ: 0 IPC: 0.0001
TH1 ROB: 105 LSQ: 86 IQ: 96, IPC: 2.1958
TH2 ROB: 4 LSQ: 1 IQ: 0, IPC: 0.0001
TH3 ROB: 4 LSQ: 3 IQ: 0, IPC: 0.0001
EPOCH ENDS
EPOCH STARTS
TH0 ROB: 4 LSQ: 4 IQ: 0 IPC: 0.0001
TH1 ROB: 106 LSQ: 87 IQ: 96, IPC: 2.1958
TH2 ROB: 4 LSQ: 1 IQ: 0, IPC: 0.0001
TH3 ROB: 4 LSQ: 3 IQ: 0, IPC: 0.0001
EPOCH ENDS
EPOCH STARTS
TH0 ROB: 4 LSQ: 4 IQ: 0 IPC: 0.0001
TH1 ROB: 105 LSQ: 87 IQ: 96, IPC: 2.1958
TH2 ROB: 4 LSQ: 1 IQ: 0, IPC: 0.0001
TH3 ROB: 4 LSQ: 3 IQ: 0, IPC: 0.0001
EPOCH ENDS
EPOCH STARTS
TH0 ROB: 4 LSQ: 4 IQ: 0 IPC: 0.0001
TH1 ROB: 105 LSQ: 86 IQ: 96, IPC: 2.1959
TH2 ROB: 4 LSQ: 1 IQ: 0, IPC: 0.0001
TH3 ROB: 4 LSQ: 3 IQ: 0, IPC: 0.0001
EPOCH ENDS
EPOCH STARTS
TH0 ROB: 4 LSQ: 4 IQ: 0 IPC: 0.0001
TH1 ROB: 105 LSQ: 86 IQ: 96, IPC: 2.1959
TH2 ROB: 4 LSQ: 1 IQ: 0, IPC: 0.0001
TH3 ROB: 4 LSQ: 3 IQ: 0, IPC: 0.0001
EPOCH ENDS
EPOCH STARTS
TH0 ROB: 4 LSQ: 4 IQ: 0 IPC: 0.0001
TH1 ROB: 105 LSQ: 86 IQ: 96, IPC: 2.1959
TH2 ROB: 4 LSQ: 1 IQ: 0, IPC: 0.0001
TH3 ROB: 4 LSQ: 3 IQ: 0, IPC: 0.0001
EPOCH ENDS
EPOCH STARTS
TH0 ROB: 4 LSQ: 4 IQ: 0 IPC: 0.0001
TH1 ROB: 105 LSQ: 86 IQ: 96, IPC: 2.1959
TH2 ROB: 4 LSQ: 1 IQ: 0, IPC: 0.0001
TH3 ROB: 4 LSQ: 3 IQ: 0, IPC: 0.0001
EPOCH ENDS
EPOCH STARTS
TH0 ROB: 4 LSQ: 4 IQ: 0 IPC: 0.0001
TH1 ROB: 105 LSQ: 87 IQ: 96, IPC: 2.1959
TH2 ROB: 4 LSQ: 1 IQ: 0, IPC: 0.0001
TH3 ROB: 4 LSQ: 3 IQ: 0, IPC: 0.0001
EPOCH ENDS
EPOCH STARTS
TH0 ROB: 4 LSQ: 4 IQ: 0 IPC: 0.0001
TH1 ROB: 105 LSQ: 86 IQ: 96, IPC: 2.1959
TH2 ROB: 4 LSQ: 1 IQ: 0, IPC: 0.0001
TH3 ROB: 4 LSQ: 3 IQ: 0, IPC: 0.0001
EPOCH ENDS
EPOCH STARTS
TH0 ROB: 4 LSQ: 4 IQ: 0 IPC: 0.0001
TH1 ROB: 105 LSQ: 86 IQ: 96, IPC: 2.1959
TH2 ROB: 4 LSQ: 1 IQ: 0, IPC: 0.0001
TH3 ROB: 4 LSQ: 3 IQ: 0, IPC: 0.0001
EPOCH ENDS
EPOCH STARTS
TH0 ROB: 4 LSQ: 4 IQ: 0 IPC: 0.0001
TH1 ROB: 105 LSQ: 86 IQ: 96, IPC: 2.1959
TH2 ROB: 4 LSQ: 1 IQ: 0, IPC: 0.0001
TH3 ROB: 4 LSQ: 3 IQ: 0, IPC: 0.0001
EPOCH ENDS
EPOCH STARTS
TH0 ROB: 4 LSQ: 4 IQ: 0 IPC: 0.0001
TH1 ROB: 105 LSQ: 87 IQ: 96, IPC: 2.1959
TH2 ROB: 4 LSQ: 1 IQ: 0, IPC: 0.0001
TH3 ROB: 4 LSQ: 3 IQ: 0, IPC: 0.0001
EPOCH ENDS
EPOCH STARTS
TH0 ROB: 4 LSQ: 4 IQ: 0 IPC: 0.0001
TH1 ROB: 105 LSQ: 88 IQ: 96, IPC: 2.1959
TH2 ROB: 4 LSQ: 1 IQ: 0, IPC: 0.0001
TH3 ROB: 4 LSQ: 3 IQ: 0, IPC: 0.0001
EPOCH ENDS
EPOCH STARTS
TH0 ROB: 4 LSQ: 4 IQ: 0 IPC: 0.0001
TH1 ROB: 104 LSQ: 85 IQ: 96, IPC: 2.1959
TH2 ROB: 4 LSQ: 1 IQ: 0, IPC: 0.0001
TH3 ROB: 4 LSQ: 3 IQ: 0, IPC: 0.0001
EPOCH ENDS
EPOCH STARTS
TH0 ROB: 4 LSQ: 4 IQ: 0 IPC: 0.0001
TH1 ROB: 104 LSQ: 85 IQ: 96, IPC: 2.1959
TH2 ROB: 4 LSQ: 1 IQ: 0, IPC: 0.0001
TH3 ROB: 4 LSQ: 3 IQ: 0, IPC: 0.0001
EPOCH ENDS
EPOCH STARTS
TH0 ROB: 4 LSQ: 4 IQ: 0 IPC: 0.0001
TH1 ROB: 105 LSQ: 86 IQ: 96, IPC: 2.1959
TH2 ROB: 4 LSQ: 1 IQ: 0, IPC: 0.0001
TH3 ROB: 4 LSQ: 3 IQ: 0, IPC: 0.0001
EPOCH ENDS
EPOCH STARTS
TH0 ROB: 4 LSQ: 4 IQ: 0 IPC: 0.0001
TH1 ROB: 105 LSQ: 87 IQ: 96, IPC: 2.1959
TH2 ROB: 4 LSQ: 1 IQ: 0, IPC: 0.0001
TH3 ROB: 4 LSQ: 3 IQ: 0, IPC: 0.0001
EPOCH ENDS
EPOCH STARTS
TH0 ROB: 4 LSQ: 4 IQ: 0 IPC: 0.0001
TH1 ROB: 106 LSQ: 87 IQ: 96, IPC: 2.1959
TH2 ROB: 4 LSQ: 1 IQ: 0, IPC: 0.0001
TH3 ROB: 4 LSQ: 3 IQ: 0, IPC: 0.0001
EPOCH ENDS
EPOCH STARTS
TH0 ROB: 4 LSQ: 4 IQ: 0 IPC: 0.0001
TH1 ROB: 104 LSQ: 85 IQ: 96, IPC: 2.1959
TH2 ROB: 4 LSQ: 1 IQ: 0, IPC: 0.0001
TH3 ROB: 4 LSQ: 3 IQ: 0, IPC: 0.0001
EPOCH ENDS
EPOCH STARTS
TH0 ROB: 4 LSQ: 4 IQ: 0 IPC: 0.0001
TH1 ROB: 104 LSQ: 85 IQ: 96, IPC: 2.1959
TH2 ROB: 4 LSQ: 1 IQ: 0, IPC: 0.0001
TH3 ROB: 4 LSQ: 3 IQ: 0, IPC: 0.0001
EPOCH ENDS
EPOCH STARTS
TH0 ROB: 4 LSQ: 4 IQ: 0 IPC: 0.0001
TH1 ROB: 104 LSQ: 85 IQ: 96, IPC: 2.1959
TH2 ROB: 4 LSQ: 1 IQ: 0, IPC: 0.0001
TH3 ROB: 4 LSQ: 3 IQ: 0, IPC: 0.0001
EPOCH ENDS
EPOCH STARTS
TH0 ROB: 4 LSQ: 4 IQ: 0 IPC: 0.0001
TH1 ROB: 105 LSQ: 87 IQ: 96, IPC: 2.1959
TH2 ROB: 4 LSQ: 1 IQ: 0, IPC: 0.0001
TH3 ROB: 4 LSQ: 3 IQ: 0, IPC: 0.0001
EPOCH ENDS
EPOCH STARTS
TH0 ROB: 4 LSQ: 4 IQ: 0 IPC: 0.0001
TH1 ROB: 105 LSQ: 86 IQ: 96, IPC: 2.1959
TH2 ROB: 4 LSQ: 1 IQ: 0, IPC: 0.0001
TH3 ROB: 4 LSQ: 3 IQ: 0, IPC: 0.0001
EPOCH ENDS
EPOCH STARTS
TH0 ROB: 4 LSQ: 4 IQ: 0 IPC: 0.0001
TH1 ROB: 104 LSQ: 85 IQ: 96, IPC: 2.1959
TH2 ROB: 4 LSQ: 1 IQ: 0, IPC: 0.0001
TH3 ROB: 4 LSQ: 3 IQ: 0, IPC: 0.0001
EPOCH ENDS
EPOCH STARTS
TH0 ROB: 4 LSQ: 4 IQ: 0 IPC: 0.0001
TH1 ROB: 104 LSQ: 85 IQ: 96, IPC: 2.1959
TH2 ROB: 4 LSQ: 1 IQ: 0, IPC: 0.0001
TH3 ROB: 4 LSQ: 3 IQ: 0, IPC: 0.0001
EPOCH ENDS
EPOCH STARTS
TH0 ROB: 4 LSQ: 4 IQ: 0 IPC: 0.0001
TH1 ROB: 104 LSQ: 87 IQ: 96, IPC: 2.1959
TH2 ROB: 4 LSQ: 1 IQ: 0, IPC: 0.0001
TH3 ROB: 4 LSQ: 3 IQ: 0, IPC: 0.0001
EPOCH ENDS
EPOCH STARTS
TH0 ROB: 4 LSQ: 4 IQ: 0 IPC: 0.0001
TH1 ROB: 105 LSQ: 87 IQ: 96, IPC: 2.1959
TH2 ROB: 4 LSQ: 1 IQ: 0, IPC: 0.0001
TH3 ROB: 4 LSQ: 3 IQ: 0, IPC: 0.0001
EPOCH ENDS
EPOCH STARTS
TH0 ROB: 4 LSQ: 4 IQ: 0 IPC: 0.0001
TH1 ROB: 105 LSQ: 85 IQ: 96, IPC: 2.1959
TH2 ROB: 4 LSQ: 1 IQ: 0, IPC: 0.0001
TH3 ROB: 4 LSQ: 3 IQ: 0, IPC: 0.0001
EPOCH ENDS
EPOCH STARTS
TH0 ROB: 4 LSQ: 4 IQ: 0 IPC: 0.0001
TH1 ROB: 104 LSQ: 85 IQ: 96, IPC: 2.1959
TH2 ROB: 4 LSQ: 1 IQ: 0, IPC: 0.0001
TH3 ROB: 4 LSQ: 3 IQ: 0, IPC: 0.0001
EPOCH ENDS
EPOCH STARTS
TH0 ROB: 4 LSQ: 4 IQ: 0 IPC: 0.0001
TH1 ROB: 104 LSQ: 85 IQ: 96, IPC: 2.1959
TH2 ROB: 4 LSQ: 1 IQ: 0, IPC: 0.0001
TH3 ROB: 4 LSQ: 3 IQ: 0, IPC: 0.0001
EPOCH ENDS
EPOCH STARTS
TH0 ROB: 4 LSQ: 4 IQ: 0 IPC: 0.0001
TH1 ROB: 104 LSQ: 86 IQ: 96, IPC: 2.1959
TH2 ROB: 4 LSQ: 1 IQ: 0, IPC: 0.0001
TH3 ROB: 4 LSQ: 3 IQ: 0, IPC: 0.0001
EPOCH ENDS
EPOCH STARTS
TH0 ROB: 4 LSQ: 4 IQ: 0 IPC: 0.0001
TH1 ROB: 107 LSQ: 88 IQ: 96, IPC: 2.1959
TH2 ROB: 4 LSQ: 1 IQ: 0, IPC: 0.0001
TH3 ROB: 4 LSQ: 3 IQ: 0, IPC: 0.0001
EPOCH ENDS
EPOCH STARTS
TH0 ROB: 4 LSQ: 4 IQ: 0 IPC: 0.0001
TH1 ROB: 105 LSQ: 86 IQ: 96, IPC: 2.1959
TH2 ROB: 4 LSQ: 1 IQ: 0, IPC: 0.0001
TH3 ROB: 4 LSQ: 3 IQ: 0, IPC: 0.0001
EPOCH ENDS
EPOCH STARTS
TH0 ROB: 4 LSQ: 4 IQ: 0 IPC: 0.0001
TH1 ROB: 105 LSQ: 85 IQ: 96, IPC: 2.1959
TH2 ROB: 4 LSQ: 1 IQ: 0, IPC: 0.0001
TH3 ROB: 4 LSQ: 3 IQ: 0, IPC: 0.0001
EPOCH ENDS
EPOCH STARTS
TH0 ROB: 4 LSQ: 4 IQ: 0 IPC: 0.0001
TH1 ROB: 104 LSQ: 85 IQ: 96, IPC: 2.1959
TH2 ROB: 4 LSQ: 1 IQ: 0, IPC: 0.0001
TH3 ROB: 4 LSQ: 3 IQ: 0, IPC: 0.0001
EPOCH ENDS
EPOCH STARTS
TH0 ROB: 4 LSQ: 4 IQ: 0 IPC: 0.0001
TH1 ROB: 105 LSQ: 87 IQ: 96, IPC: 2.1959
TH2 ROB: 4 LSQ: 1 IQ: 0, IPC: 0.0001
TH3 ROB: 4 LSQ: 3 IQ: 0, IPC: 0.0001
EPOCH ENDS
EPOCH STARTS
TH0 ROB: 4 LSQ: 4 IQ: 0 IPC: 0.0001
TH1 ROB: 105 LSQ: 86 IQ: 96, IPC: 2.1959
TH2 ROB: 4 LSQ: 1 IQ: 0, IPC: 0.0001
TH3 ROB: 4 LSQ: 3 IQ: 0, IPC: 0.0001
EPOCH ENDS
EPOCH STARTS
TH0 ROB: 4 LSQ: 4 IQ: 0 IPC: 0.0001
TH1 ROB: 104 LSQ: 85 IQ: 96, IPC: 2.1959
TH2 ROB: 4 LSQ: 1 IQ: 0, IPC: 0.0001
TH3 ROB: 4 LSQ: 3 IQ: 0, IPC: 0.0001
EPOCH ENDS
EPOCH STARTS
TH0 ROB: 4 LSQ: 4 IQ: 0 IPC: 0.0001
TH1 ROB: 105 LSQ: 86 IQ: 96, IPC: 2.1959
TH2 ROB: 4 LSQ: 1 IQ: 0, IPC: 0.0001
TH3 ROB: 4 LSQ: 3 IQ: 0, IPC: 0.0001
EPOCH ENDS
EPOCH STARTS
TH0 ROB: 4 LSQ: 4 IQ: 0 IPC: 0.0001
TH1 ROB: 105 LSQ: 87 IQ: 96, IPC: 2.1959
TH2 ROB: 4 LSQ: 1 IQ: 0, IPC: 0.0001
TH3 ROB: 4 LSQ: 3 IQ: 0, IPC: 0.0001
EPOCH ENDS
EPOCH STARTS
TH0 ROB: 4 LSQ: 4 IQ: 0 IPC: 0.0001
TH1 ROB: 105 LSQ: 87 IQ: 96, IPC: 2.1959
TH2 ROB: 4 LSQ: 1 IQ: 0, IPC: 0.0001
TH3 ROB: 4 LSQ: 3 IQ: 0, IPC: 0.0001
EPOCH ENDS
EPOCH STARTS
TH0 ROB: 4 LSQ: 4 IQ: 0 IPC: 0.0001
TH1 ROB: 106 LSQ: 87 IQ: 96, IPC: 2.1959
TH2 ROB: 4 LSQ: 1 IQ: 0, IPC: 0.0001
TH3 ROB: 4 LSQ: 3 IQ: 0, IPC: 0.0001
EPOCH ENDS
EPOCH STARTS
TH0 ROB: 4 LSQ: 4 IQ: 0 IPC: 0.0001
TH1 ROB: 104 LSQ: 85 IQ: 96, IPC: 2.1959
TH2 ROB: 4 LSQ: 1 IQ: 0, IPC: 0.0001
TH3 ROB: 4 LSQ: 3 IQ: 0, IPC: 0.0001
EPOCH ENDS
EPOCH STARTS
TH0 ROB: 4 LSQ: 4 IQ: 0 IPC: 0.0001
TH1 ROB: 104 LSQ: 85 IQ: 96, IPC: 2.1959
TH2 ROB: 4 LSQ: 1 IQ: 0, IPC: 0.0001
TH3 ROB: 4 LSQ: 3 IQ: 0, IPC: 0.0001
EPOCH ENDS
EPOCH STARTS
TH0 ROB: 4 LSQ: 4 IQ: 0 IPC: 0.0001
TH1 ROB: 105 LSQ: 87 IQ: 96, IPC: 2.1959
TH2 ROB: 4 LSQ: 1 IQ: 0, IPC: 0.0001
TH3 ROB: 4 LSQ: 3 IQ: 0, IPC: 0.0001
EPOCH ENDS
EPOCH STARTS
TH0 ROB: 4 LSQ: 4 IQ: 0 IPC: 0.0001
TH1 ROB: 106 LSQ: 87 IQ: 96, IPC: 2.1959
TH2 ROB: 4 LSQ: 1 IQ: 0, IPC: 0.0001
TH3 ROB: 4 LSQ: 3 IQ: 0, IPC: 0.0001
EPOCH ENDS
EPOCH STARTS
TH0 ROB: 4 LSQ: 4 IQ: 0 IPC: 0.0001
TH1 ROB: 106 LSQ: 87 IQ: 96, IPC: 2.1959
TH2 ROB: 4 LSQ: 1 IQ: 0, IPC: 0.0001
TH3 ROB: 4 LSQ: 3 IQ: 0, IPC: 0.0001
EPOCH ENDS
EPOCH STARTS
TH0 ROB: 4 LSQ: 4 IQ: 0 IPC: 0.0001
TH1 ROB: 106 LSQ: 87 IQ: 96, IPC: 2.1959
TH2 ROB: 4 LSQ: 1 IQ: 0, IPC: 0.0001
TH3 ROB: 4 LSQ: 3 IQ: 0, IPC: 0.0001
EPOCH ENDS
EPOCH STARTS
TH0 ROB: 4 LSQ: 4 IQ: 0 IPC: 0.0001
TH1 ROB: 104 LSQ: 86 IQ: 96, IPC: 2.1959
TH2 ROB: 4 LSQ: 1 IQ: 0, IPC: 0.0001
TH3 ROB: 4 LSQ: 3 IQ: 0, IPC: 0.0001
EPOCH ENDS
EPOCH STARTS
TH0 ROB: 4 LSQ: 4 IQ: 0 IPC: 0.0001
TH1 ROB: 104 LSQ: 87 IQ: 96, IPC: 2.1959
TH2 ROB: 4 LSQ: 1 IQ: 0, IPC: 0.0001
TH3 ROB: 4 LSQ: 3 IQ: 0, IPC: 0.0001
EPOCH ENDS
EPOCH STARTS
TH0 ROB: 4 LSQ: 4 IQ: 0 IPC: 0.0001
TH1 ROB: 105 LSQ: 86 IQ: 96, IPC: 2.1959
TH2 ROB: 4 LSQ: 1 IQ: 0, IPC: 0.0001
TH3 ROB: 4 LSQ: 3 IQ: 0, IPC: 0.0001
EPOCH ENDS
EPOCH STARTS
TH0 ROB: 4 LSQ: 4 IQ: 0 IPC: 0.0001
TH1 ROB: 105 LSQ: 86 IQ: 96, IPC: 2.1959
TH2 ROB: 4 LSQ: 1 IQ: 0, IPC: 0.0001
TH3 ROB: 4 LSQ: 3 IQ: 0, IPC: 0.0001
EPOCH ENDS
EPOCH STARTS
TH0 ROB: 4 LSQ: 4 IQ: 0 IPC: 0.0001
TH1 ROB: 106 LSQ: 87 IQ: 96, IPC: 2.1959
TH2 ROB: 4 LSQ: 1 IQ: 0, IPC: 0.0001
TH3 ROB: 4 LSQ: 3 IQ: 0, IPC: 0.0001
EPOCH ENDS
EPOCH STARTS
TH0 ROB: 4 LSQ: 4 IQ: 0 IPC: 0.0001
TH1 ROB: 105 LSQ: 87 IQ: 96, IPC: 2.1959
TH2 ROB: 4 LSQ: 1 IQ: 0, IPC: 0.0001
TH3 ROB: 4 LSQ: 3 IQ: 0, IPC: 0.0001
EPOCH ENDS
EPOCH STARTS
TH0 ROB: 4 LSQ: 4 IQ: 0 IPC: 0.0001
TH1 ROB: 105 LSQ: 86 IQ: 96, IPC: 2.1959
TH2 ROB: 4 LSQ: 1 IQ: 0, IPC: 0.0001
TH3 ROB: 4 LSQ: 3 IQ: 0, IPC: 0.0001
EPOCH ENDS
EPOCH STARTS
TH0 ROB: 4 LSQ: 4 IQ: 0 IPC: 0.0001
TH1 ROB: 105 LSQ: 86 IQ: 96, IPC: 2.1959
TH2 ROB: 4 LSQ: 1 IQ: 0, IPC: 0.0001
TH3 ROB: 4 LSQ: 3 IQ: 0, IPC: 0.0001
EPOCH ENDS
EPOCH STARTS
TH0 ROB: 4 LSQ: 4 IQ: 0 IPC: 0.0001
TH1 ROB: 105 LSQ: 86 IQ: 96, IPC: 2.1959
TH2 ROB: 4 LSQ: 1 IQ: 0, IPC: 0.0001
TH3 ROB: 4 LSQ: 3 IQ: 0, IPC: 0.0001
EPOCH ENDS
EPOCH STARTS
TH0 ROB: 4 LSQ: 4 IQ: 0 IPC: 0.0001
TH1 ROB: 105 LSQ: 86 IQ: 96, IPC: 2.1959
TH2 ROB: 4 LSQ: 1 IQ: 0, IPC: 0.0001
TH3 ROB: 4 LSQ: 3 IQ: 0, IPC: 0.0001
EPOCH ENDS
EPOCH STARTS
TH0 ROB: 4 LSQ: 4 IQ: 0 IPC: 0.0001
TH1 ROB: 105 LSQ: 87 IQ: 96, IPC: 2.1959
TH2 ROB: 4 LSQ: 1 IQ: 0, IPC: 0.0001
TH3 ROB: 4 LSQ: 3 IQ: 0, IPC: 0.0001
EPOCH ENDS
EPOCH STARTS
TH0 ROB: 4 LSQ: 4 IQ: 0 IPC: 0.0001
TH1 ROB: 105 LSQ: 86 IQ: 96, IPC: 2.1959
TH2 ROB: 4 LSQ: 1 IQ: 0, IPC: 0.0001
TH3 ROB: 4 LSQ: 3 IQ: 0, IPC: 0.0001
EPOCH ENDS
EPOCH STARTS
TH0 ROB: 4 LSQ: 4 IQ: 0 IPC: 0.0001
TH1 ROB: 105 LSQ: 86 IQ: 96, IPC: 2.1959
TH2 ROB: 4 LSQ: 1 IQ: 0, IPC: 0.0001
TH3 ROB: 4 LSQ: 3 IQ: 0, IPC: 0.0001
EPOCH ENDS
EPOCH STARTS
TH0 ROB: 4 LSQ: 4 IQ: 0 IPC: 0.0001
TH1 ROB: 105 LSQ: 86 IQ: 96, IPC: 2.1959
TH2 ROB: 4 LSQ: 1 IQ: 0, IPC: 0.0001
TH3 ROB: 4 LSQ: 3 IQ: 0, IPC: 0.0001
EPOCH ENDS
EPOCH STARTS
TH0 ROB: 4 LSQ: 4 IQ: 0 IPC: 0.0001
TH1 ROB: 105 LSQ: 87 IQ: 96, IPC: 2.1959
TH2 ROB: 4 LSQ: 1 IQ: 0, IPC: 0.0001
TH3 ROB: 4 LSQ: 3 IQ: 0, IPC: 0.0001
EPOCH ENDS
EPOCH STARTS
TH0 ROB: 4 LSQ: 4 IQ: 0 IPC: 0.0001
TH1 ROB: 105 LSQ: 88 IQ: 96, IPC: 2.1959
TH2 ROB: 4 LSQ: 1 IQ: 0, IPC: 0.0001
TH3 ROB: 4 LSQ: 3 IQ: 0, IPC: 0.0001
EPOCH ENDS
EPOCH STARTS
TH0 ROB: 4 LSQ: 4 IQ: 0 IPC: 0.0001
TH1 ROB: 104 LSQ: 85 IQ: 96, IPC: 2.1959
TH2 ROB: 4 LSQ: 1 IQ: 0, IPC: 0.0001
TH3 ROB: 4 LSQ: 3 IQ: 0, IPC: 0.0001
EPOCH ENDS
EPOCH STARTS
TH0 ROB: 4 LSQ: 4 IQ: 0 IPC: 0.0001
TH1 ROB: 104 LSQ: 85 IQ: 96, IPC: 2.1959
TH2 ROB: 4 LSQ: 1 IQ: 0, IPC: 0.0001
TH3 ROB: 4 LSQ: 3 IQ: 0, IPC: 0.0001
EPOCH ENDS
EPOCH STARTS
TH0 ROB: 4 LSQ: 4 IQ: 0 IPC: 0.0001
TH1 ROB: 105 LSQ: 86 IQ: 96, IPC: 2.1959
TH2 ROB: 4 LSQ: 1 IQ: 0, IPC: 0.0001
TH3 ROB: 4 LSQ: 3 IQ: 0, IPC: 0.0001
EPOCH ENDS
EPOCH STARTS
TH0 ROB: 4 LSQ: 4 IQ: 0 IPC: 0.0001
TH1 ROB: 105 LSQ: 87 IQ: 96, IPC: 2.1959
TH2 ROB: 4 LSQ: 1 IQ: 0, IPC: 0.0001
TH3 ROB: 4 LSQ: 3 IQ: 0, IPC: 0.0001
EPOCH ENDS
EPOCH STARTS
TH0 ROB: 4 LSQ: 4 IQ: 0 IPC: 0.0001
TH1 ROB: 106 LSQ: 87 IQ: 96, IPC: 2.1959
TH2 ROB: 4 LSQ: 1 IQ: 0, IPC: 0.0001
TH3 ROB: 4 LSQ: 3 IQ: 0, IPC: 0.0001
EPOCH ENDS
EPOCH STARTS
TH0 ROB: 4 LSQ: 4 IQ: 0 IPC: 0.0001
TH1 ROB: 104 LSQ: 85 IQ: 96, IPC: 2.1959
TH2 ROB: 4 LSQ: 1 IQ: 0, IPC: 0.0001
TH3 ROB: 4 LSQ: 3 IQ: 0, IPC: 0.0001
EPOCH ENDS
EPOCH STARTS
TH0 ROB: 4 LSQ: 4 IQ: 0 IPC: 0.0001
TH1 ROB: 104 LSQ: 85 IQ: 96, IPC: 2.1959
TH2 ROB: 4 LSQ: 1 IQ: 0, IPC: 0.0001
TH3 ROB: 4 LSQ: 3 IQ: 0, IPC: 0.0001
EPOCH ENDS
EPOCH STARTS
TH0 ROB: 4 LSQ: 4 IQ: 0 IPC: 0.0001
TH1 ROB: 104 LSQ: 85 IQ: 96, IPC: 2.1959
TH2 ROB: 4 LSQ: 1 IQ: 0, IPC: 0.0001
TH3 ROB: 4 LSQ: 3 IQ: 0, IPC: 0.0001
EPOCH ENDS
EPOCH STARTS
TH0 ROB: 4 LSQ: 4 IQ: 0 IPC: 0.0001
TH1 ROB: 105 LSQ: 87 IQ: 96, IPC: 2.1959
TH2 ROB: 4 LSQ: 1 IQ: 0, IPC: 0.0001
TH3 ROB: 4 LSQ: 3 IQ: 0, IPC: 0.0001
EPOCH ENDS
EPOCH STARTS
TH0 ROB: 4 LSQ: 4 IQ: 0 IPC: 0.0001
TH1 ROB: 105 LSQ: 86 IQ: 96, IPC: 2.1959
TH2 ROB: 4 LSQ: 1 IQ: 0, IPC: 0.0001
TH3 ROB: 4 LSQ: 3 IQ: 0, IPC: 0.0001
EPOCH ENDS
EPOCH STARTS
TH0 ROB: 4 LSQ: 4 IQ: 0 IPC: 0.0001
TH1 ROB: 104 LSQ: 85 IQ: 96, IPC: 2.1959
TH2 ROB: 4 LSQ: 1 IQ: 0, IPC: 0.0001
TH3 ROB: 4 LSQ: 3 IQ: 0, IPC: 0.0001
EPOCH ENDS
EPOCH STARTS
TH0 ROB: 4 LSQ: 4 IQ: 0 IPC: 0.0001
TH1 ROB: 104 LSQ: 85 IQ: 96, IPC: 2.1959
TH2 ROB: 4 LSQ: 1 IQ: 0, IPC: 0.0001
TH3 ROB: 4 LSQ: 3 IQ: 0, IPC: 0.0001
EPOCH ENDS
EPOCH STARTS
TH0 ROB: 4 LSQ: 4 IQ: 0 IPC: 0.0001
TH1 ROB: 104 LSQ: 87 IQ: 96, IPC: 2.1959
TH2 ROB: 4 LSQ: 1 IQ: 0, IPC: 0.0001
TH3 ROB: 4 LSQ: 3 IQ: 0, IPC: 0.0001
EPOCH ENDS
EPOCH STARTS
TH0 ROB: 4 LSQ: 4 IQ: 0 IPC: 0.0001
TH1 ROB: 105 LSQ: 87 IQ: 96, IPC: 2.1959
TH2 ROB: 4 LSQ: 1 IQ: 0, IPC: 0.0001
TH3 ROB: 4 LSQ: 3 IQ: 0, IPC: 0.0001
EPOCH ENDS
EPOCH STARTS
TH0 ROB: 4 LSQ: 4 IQ: 0 IPC: 0.0001
TH1 ROB: 105 LSQ: 85 IQ: 96, IPC: 2.1959
TH2 ROB: 4 LSQ: 1 IQ: 0, IPC: 0.0001
TH3 ROB: 4 LSQ: 3 IQ: 0, IPC: 0.0001
EPOCH ENDS
EPOCH STARTS
TH0 ROB: 4 LSQ: 4 IQ: 0 IPC: 0.0001
TH1 ROB: 104 LSQ: 85 IQ: 96, IPC: 2.1959
TH2 ROB: 4 LSQ: 1 IQ: 0, IPC: 0.0001
TH3 ROB: 4 LSQ: 3 IQ: 0, IPC: 0.0001
EPOCH ENDS
EPOCH STARTS
TH0 ROB: 4 LSQ: 4 IQ: 0 IPC: 0.0001
TH1 ROB: 104 LSQ: 85 IQ: 96, IPC: 2.1959
TH2 ROB: 4 LSQ: 1 IQ: 0, IPC: 0.0001
TH3 ROB: 4 LSQ: 3 IQ: 0, IPC: 0.0001
EPOCH ENDS
EPOCH STARTS
TH0 ROB: 4 LSQ: 4 IQ: 0 IPC: 0.0001
TH1 ROB: 104 LSQ: 86 IQ: 96, IPC: 2.1959
TH2 ROB: 4 LSQ: 1 IQ: 0, IPC: 0.0001
TH3 ROB: 4 LSQ: 3 IQ: 0, IPC: 0.0001
EPOCH ENDS
EPOCH STARTS
TH0 ROB: 4 LSQ: 4 IQ: 0 IPC: 0.0001
TH1 ROB: 107 LSQ: 88 IQ: 96, IPC: 2.1959
TH2 ROB: 4 LSQ: 1 IQ: 0, IPC: 0.0001
TH3 ROB: 4 LSQ: 3 IQ: 0, IPC: 0.0001
EPOCH ENDS
EPOCH STARTS
TH0 ROB: 4 LSQ: 4 IQ: 0 IPC: 0.0001
TH1 ROB: 105 LSQ: 86 IQ: 96, IPC: 2.1959
TH2 ROB: 4 LSQ: 1 IQ: 0, IPC: 0.0001
TH3 ROB: 4 LSQ: 3 IQ: 0, IPC: 0.0001
EPOCH ENDS
EPOCH STARTS
TH0 ROB: 4 LSQ: 4 IQ: 0 IPC: 0.0001
TH1 ROB: 105 LSQ: 85 IQ: 96, IPC: 2.1959
TH2 ROB: 4 LSQ: 1 IQ: 0, IPC: 0.0001
TH3 ROB: 4 LSQ: 3 IQ: 0, IPC: 0.0001
EPOCH ENDS
EPOCH STARTS
TH0 ROB: 4 LSQ: 4 IQ: 0 IPC: 0.0001
TH1 ROB: 104 LSQ: 85 IQ: 96, IPC: 2.1959
TH2 ROB: 4 LSQ: 1 IQ: 0, IPC: 0.0001
TH3 ROB: 4 LSQ: 3 IQ: 0, IPC: 0.0001
EPOCH ENDS
EPOCH STARTS
TH0 ROB: 4 LSQ: 4 IQ: 0 IPC: 0.0001
TH1 ROB: 105 LSQ: 87 IQ: 96, IPC: 2.1959
TH2 ROB: 4 LSQ: 1 IQ: 0, IPC: 0.0001
TH3 ROB: 4 LSQ: 3 IQ: 0, IPC: 0.0001
EPOCH ENDS
EPOCH STARTS
TH0 ROB: 4 LSQ: 4 IQ: 0 IPC: 0.0001
TH1 ROB: 105 LSQ: 86 IQ: 96, IPC: 2.1959
TH2 ROB: 4 LSQ: 1 IQ: 0, IPC: 0.0001
TH3 ROB: 4 LSQ: 3 IQ: 0, IPC: 0.0001
EPOCH ENDS
EPOCH STARTS
TH0 ROB: 4 LSQ: 4 IQ: 0 IPC: 0.0001
TH1 ROB: 104 LSQ: 85 IQ: 96, IPC: 2.1959
TH2 ROB: 4 LSQ: 1 IQ: 0, IPC: 0.0001
TH3 ROB: 4 LSQ: 3 IQ: 0, IPC: 0.0001
EPOCH ENDS
EPOCH STARTS
TH0 ROB: 4 LSQ: 4 IQ: 0 IPC: 0.0001
TH1 ROB: 105 LSQ: 86 IQ: 96, IPC: 2.1959
TH2 ROB: 4 LSQ: 1 IQ: 0, IPC: 0.0001
TH3 ROB: 4 LSQ: 3 IQ: 0, IPC: 0.0001
EPOCH ENDS
EPOCH STARTS
TH0 ROB: 4 LSQ: 4 IQ: 0 IPC: 0.0001
TH1 ROB: 105 LSQ: 87 IQ: 96, IPC: 2.1959
TH2 ROB: 4 LSQ: 1 IQ: 0, IPC: 0.0001
TH3 ROB: 4 LSQ: 3 IQ: 0, IPC: 0.0001
EPOCH ENDS
EPOCH STARTS
TH0 ROB: 4 LSQ: 4 IQ: 0 IPC: 0.0001
TH1 ROB: 105 LSQ: 87 IQ: 96, IPC: 2.1959
TH2 ROB: 4 LSQ: 1 IQ: 0, IPC: 0.0001
TH3 ROB: 4 LSQ: 3 IQ: 0, IPC: 0.0001
EPOCH ENDS
EPOCH STARTS
TH0 ROB: 4 LSQ: 4 IQ: 0 IPC: 0.0001
TH1 ROB: 106 LSQ: 87 IQ: 96, IPC: 2.1959
TH2 ROB: 4 LSQ: 1 IQ: 0, IPC: 0.0001
TH3 ROB: 4 LSQ: 3 IQ: 0, IPC: 0.0001
EPOCH ENDS
EPOCH STARTS
TH0 ROB: 4 LSQ: 4 IQ: 0 IPC: 0.0001
TH1 ROB: 104 LSQ: 85 IQ: 96, IPC: 2.1959
TH2 ROB: 4 LSQ: 1 IQ: 0, IPC: 0.0001
TH3 ROB: 4 LSQ: 3 IQ: 0, IPC: 0.0001
EPOCH ENDS
EPOCH STARTS
TH0 ROB: 4 LSQ: 4 IQ: 0 IPC: 0.0001
TH1 ROB: 104 LSQ: 85 IQ: 96, IPC: 2.1959
TH2 ROB: 4 LSQ: 1 IQ: 0, IPC: 0.0001
TH3 ROB: 4 LSQ: 3 IQ: 0, IPC: 0.0001
EPOCH ENDS
EPOCH STARTS
TH0 ROB: 4 LSQ: 4 IQ: 0 IPC: 0.0001
TH1 ROB: 105 LSQ: 87 IQ: 96, IPC: 2.1959
TH2 ROB: 4 LSQ: 1 IQ: 0, IPC: 0.0001
TH3 ROB: 4 LSQ: 3 IQ: 0, IPC: 0.0001
EPOCH ENDS
EPOCH STARTS
TH0 ROB: 4 LSQ: 4 IQ: 0 IPC: 0.0001
TH1 ROB: 106 LSQ: 87 IQ: 96, IPC: 2.1959
TH2 ROB: 4 LSQ: 1 IQ: 0, IPC: 0.0001
TH3 ROB: 4 LSQ: 3 IQ: 0, IPC: 0.0001
EPOCH ENDS
EPOCH STARTS
TH0 ROB: 4 LSQ: 4 IQ: 0 IPC: 0.0001
TH1 ROB: 106 LSQ: 87 IQ: 96, IPC: 2.1959
TH2 ROB: 4 LSQ: 1 IQ: 0, IPC: 0.0001
TH3 ROB: 4 LSQ: 3 IQ: 0, IPC: 0.0001
EPOCH ENDS
EPOCH STARTS
TH0 ROB: 4 LSQ: 4 IQ: 0 IPC: 0.0001
TH1 ROB: 106 LSQ: 87 IQ: 96, IPC: 2.1959
TH2 ROB: 4 LSQ: 1 IQ: 0, IPC: 0.0001
TH3 ROB: 4 LSQ: 3 IQ: 0, IPC: 0.0001
EPOCH ENDS
EPOCH STARTS
TH0 ROB: 4 LSQ: 4 IQ: 0 IPC: 0.0001
TH1 ROB: 104 LSQ: 86 IQ: 96, IPC: 2.1959
TH2 ROB: 4 LSQ: 1 IQ: 0, IPC: 0.0001
TH3 ROB: 4 LSQ: 3 IQ: 0, IPC: 0.0001
EPOCH ENDS
EPOCH STARTS
TH0 ROB: 4 LSQ: 4 IQ: 0 IPC: 0.0001
TH1 ROB: 104 LSQ: 87 IQ: 96, IPC: 2.1959
TH2 ROB: 4 LSQ: 1 IQ: 0, IPC: 0.0001
TH3 ROB: 4 LSQ: 3 IQ: 0, IPC: 0.0001
EPOCH ENDS
EPOCH STARTS
TH0 ROB: 4 LSQ: 4 IQ: 0 IPC: 0.0001
TH1 ROB: 105 LSQ: 86 IQ: 96, IPC: 2.1959
TH2 ROB: 4 LSQ: 1 IQ: 0, IPC: 0.0001
TH3 ROB: 4 LSQ: 3 IQ: 0, IPC: 0.0001
EPOCH ENDS
EPOCH STARTS
TH0 ROB: 4 LSQ: 4 IQ: 0 IPC: 0.0001
TH1 ROB: 105 LSQ: 86 IQ: 96, IPC: 2.1959
TH2 ROB: 4 LSQ: 1 IQ: 0, IPC: 0.0001
TH3 ROB: 4 LSQ: 3 IQ: 0, IPC: 0.0001
EPOCH ENDS
EPOCH STARTS
TH0 ROB: 4 LSQ: 4 IQ: 0 IPC: 0.0001
TH1 ROB: 106 LSQ: 87 IQ: 96, IPC: 2.1959
TH2 ROB: 4 LSQ: 1 IQ: 0, IPC: 0.0001
TH3 ROB: 4 LSQ: 3 IQ: 0, IPC: 0.0001
EPOCH ENDS
EPOCH STARTS
TH0 ROB: 4 LSQ: 4 IQ: 0 IPC: 0.0001
TH1 ROB: 105 LSQ: 87 IQ: 96, IPC: 2.1959
TH2 ROB: 4 LSQ: 1 IQ: 0, IPC: 0.0001
TH3 ROB: 4 LSQ: 3 IQ: 0, IPC: 0.0001
EPOCH ENDS
EPOCH STARTS
TH0 ROB: 4 LSQ: 4 IQ: 0 IPC: 0.0001
TH1 ROB: 105 LSQ: 86 IQ: 96, IPC: 2.1959
TH2 ROB: 4 LSQ: 1 IQ: 0, IPC: 0.0001
TH3 ROB: 4 LSQ: 3 IQ: 0, IPC: 0.0001
EPOCH ENDS
EPOCH STARTS
TH0 ROB: 4 LSQ: 4 IQ: 0 IPC: 0.0001
TH1 ROB: 105 LSQ: 86 IQ: 96, IPC: 2.1959
TH2 ROB: 4 LSQ: 1 IQ: 0, IPC: 0.0001
TH3 ROB: 4 LSQ: 3 IQ: 0, IPC: 0.0001
EPOCH ENDS
EPOCH STARTS
TH0 ROB: 4 LSQ: 4 IQ: 0 IPC: 0.0001
TH1 ROB: 105 LSQ: 86 IQ: 96, IPC: 2.1959
TH2 ROB: 4 LSQ: 1 IQ: 0, IPC: 0.0001
TH3 ROB: 4 LSQ: 3 IQ: 0, IPC: 0.0001
EPOCH ENDS
EPOCH STARTS
TH0 ROB: 4 LSQ: 4 IQ: 0 IPC: 0.0001
TH1 ROB: 105 LSQ: 86 IQ: 96, IPC: 2.1959
TH2 ROB: 4 LSQ: 1 IQ: 0, IPC: 0.0001
TH3 ROB: 4 LSQ: 3 IQ: 0, IPC: 0.0001
EPOCH ENDS
EPOCH STARTS
TH0 ROB: 4 LSQ: 4 IQ: 0 IPC: 0.0001
TH1 ROB: 105 LSQ: 87 IQ: 96, IPC: 2.1959
TH2 ROB: 4 LSQ: 1 IQ: 0, IPC: 0.0001
TH3 ROB: 4 LSQ: 3 IQ: 0, IPC: 0.0001
EPOCH ENDS
EPOCH STARTS
TH0 ROB: 4 LSQ: 4 IQ: 0 IPC: 0.0001
TH1 ROB: 105 LSQ: 86 IQ: 96, IPC: 2.1959
TH2 ROB: 4 LSQ: 1 IQ: 0, IPC: 0.0001
TH3 ROB: 4 LSQ: 3 IQ: 0, IPC: 0.0001
EPOCH ENDS
EPOCH STARTS
TH0 ROB: 4 LSQ: 4 IQ: 0 IPC: 0.0001
TH1 ROB: 105 LSQ: 86 IQ: 96, IPC: 2.1959
TH2 ROB: 4 LSQ: 1 IQ: 0, IPC: 0.0001
TH3 ROB: 4 LSQ: 3 IQ: 0, IPC: 0.0001
EPOCH ENDS
EPOCH STARTS
TH0 ROB: 4 LSQ: 4 IQ: 0 IPC: 0.0001
TH1 ROB: 105 LSQ: 86 IQ: 96, IPC: 2.1959
TH2 ROB: 4 LSQ: 1 IQ: 0, IPC: 0.0000
TH3 ROB: 4 LSQ: 3 IQ: 0, IPC: 0.0001
EPOCH ENDS
EPOCH STARTS
TH0 ROB: 4 LSQ: 4 IQ: 0 IPC: 0.0001
TH1 ROB: 105 LSQ: 87 IQ: 96, IPC: 2.1959
TH2 ROB: 4 LSQ: 1 IQ: 0, IPC: 0.0000
TH3 ROB: 4 LSQ: 3 IQ: 0, IPC: 0.0001
EPOCH ENDS
EPOCH STARTS
TH0 ROB: 4 LSQ: 4 IQ: 0 IPC: 0.0001
TH1 ROB: 105 LSQ: 88 IQ: 96, IPC: 2.1959
TH2 ROB: 4 LSQ: 1 IQ: 0, IPC: 0.0000
TH3 ROB: 4 LSQ: 3 IQ: 0, IPC: 0.0001
EPOCH ENDS
EPOCH STARTS
TH0 ROB: 4 LSQ: 4 IQ: 0 IPC: 0.0001
TH1 ROB: 104 LSQ: 85 IQ: 96, IPC: 2.1959
TH2 ROB: 4 LSQ: 1 IQ: 0, IPC: 0.0000
TH3 ROB: 4 LSQ: 3 IQ: 0, IPC: 0.0001
EPOCH ENDS
EPOCH STARTS
TH0 ROB: 4 LSQ: 4 IQ: 0 IPC: 0.0001
TH1 ROB: 104 LSQ: 85 IQ: 96, IPC: 2.1959
TH2 ROB: 4 LSQ: 1 IQ: 0, IPC: 0.0000
TH3 ROB: 4 LSQ: 3 IQ: 0, IPC: 0.0001
EPOCH ENDS
EPOCH STARTS
TH0 ROB: 4 LSQ: 4 IQ: 0 IPC: 0.0001
TH1 ROB: 105 LSQ: 86 IQ: 96, IPC: 2.1959
TH2 ROB: 4 LSQ: 1 IQ: 0, IPC: 0.0000
TH3 ROB: 4 LSQ: 3 IQ: 0, IPC: 0.0001
EPOCH ENDS
EPOCH STARTS
TH0 ROB: 4 LSQ: 4 IQ: 0 IPC: 0.0001
TH1 ROB: 105 LSQ: 87 IQ: 96, IPC: 2.1959
TH2 ROB: 4 LSQ: 1 IQ: 0, IPC: 0.0000
TH3 ROB: 4 LSQ: 3 IQ: 0, IPC: 0.0001
EPOCH ENDS
EPOCH STARTS
TH0 ROB: 4 LSQ: 4 IQ: 0 IPC: 0.0001
TH1 ROB: 106 LSQ: 87 IQ: 96, IPC: 2.1959
TH2 ROB: 4 LSQ: 1 IQ: 0, IPC: 0.0000
TH3 ROB: 4 LSQ: 3 IQ: 0, IPC: 0.0001
EPOCH ENDS
EPOCH STARTS
TH0 ROB: 4 LSQ: 4 IQ: 0 IPC: 0.0001
TH1 ROB: 104 LSQ: 85 IQ: 96, IPC: 2.1959
TH2 ROB: 4 LSQ: 1 IQ: 0, IPC: 0.0000
TH3 ROB: 4 LSQ: 3 IQ: 0, IPC: 0.0001
EPOCH ENDS
EPOCH STARTS
TH0 ROB: 4 LSQ: 4 IQ: 0 IPC: 0.0001
TH1 ROB: 104 LSQ: 85 IQ: 96, IPC: 2.1959
TH2 ROB: 4 LSQ: 1 IQ: 0, IPC: 0.0000
TH3 ROB: 4 LSQ: 3 IQ: 0, IPC: 0.0001
EPOCH ENDS
EPOCH STARTS
TH0 ROB: 4 LSQ: 4 IQ: 0 IPC: 0.0001
TH1 ROB: 104 LSQ: 85 IQ: 96, IPC: 2.1959
TH2 ROB: 4 LSQ: 1 IQ: 0, IPC: 0.0000
TH3 ROB: 4 LSQ: 3 IQ: 0, IPC: 0.0001
EPOCH ENDS
EPOCH STARTS
TH0 ROB: 4 LSQ: 4 IQ: 0 IPC: 0.0001
TH1 ROB: 105 LSQ: 87 IQ: 96, IPC: 2.1959
TH2 ROB: 4 LSQ: 1 IQ: 0, IPC: 0.0000
TH3 ROB: 4 LSQ: 3 IQ: 0, IPC: 0.0001
EPOCH ENDS
EPOCH STARTS
TH0 ROB: 4 LSQ: 4 IQ: 0 IPC: 0.0001
TH1 ROB: 105 LSQ: 86 IQ: 96, IPC: 2.1959
TH2 ROB: 4 LSQ: 1 IQ: 0, IPC: 0.0000
TH3 ROB: 4 LSQ: 3 IQ: 0, IPC: 0.0001
EPOCH ENDS
EPOCH STARTS
TH0 ROB: 4 LSQ: 4 IQ: 0 IPC: 0.0001
TH1 ROB: 104 LSQ: 85 IQ: 96, IPC: 2.1959
TH2 ROB: 4 LSQ: 1 IQ: 0, IPC: 0.0000
TH3 ROB: 4 LSQ: 3 IQ: 0, IPC: 0.0001
EPOCH ENDS
EPOCH STARTS
TH0 ROB: 4 LSQ: 4 IQ: 0 IPC: 0.0001
TH1 ROB: 104 LSQ: 85 IQ: 96, IPC: 2.1959
TH2 ROB: 4 LSQ: 1 IQ: 0, IPC: 0.0000
TH3 ROB: 4 LSQ: 3 IQ: 0, IPC: 0.0001
EPOCH ENDS
EPOCH STARTS
TH0 ROB: 4 LSQ: 4 IQ: 0 IPC: 0.0001
TH1 ROB: 104 LSQ: 87 IQ: 96, IPC: 2.1959
TH2 ROB: 4 LSQ: 1 IQ: 0, IPC: 0.0000
TH3 ROB: 4 LSQ: 3 IQ: 0, IPC: 0.0001
EPOCH ENDS
EPOCH STARTS
TH0 ROB: 4 LSQ: 4 IQ: 0 IPC: 0.0001
TH1 ROB: 105 LSQ: 87 IQ: 96, IPC: 2.1959
TH2 ROB: 4 LSQ: 1 IQ: 0, IPC: 0.0000
TH3 ROB: 4 LSQ: 3 IQ: 0, IPC: 0.0000
EPOCH ENDS
EPOCH STARTS
TH0 ROB: 4 LSQ: 4 IQ: 0 IPC: 0.0001
TH1 ROB: 105 LSQ: 85 IQ: 96, IPC: 2.1959
TH2 ROB: 4 LSQ: 1 IQ: 0, IPC: 0.0000
TH3 ROB: 4 LSQ: 3 IQ: 0, IPC: 0.0000
EPOCH ENDS
EPOCH STARTS
TH0 ROB: 4 LSQ: 4 IQ: 0 IPC: 0.0001
TH1 ROB: 104 LSQ: 85 IQ: 96, IPC: 2.1959
TH2 ROB: 4 LSQ: 1 IQ: 0, IPC: 0.0000
TH3 ROB: 4 LSQ: 3 IQ: 0, IPC: 0.0000
EPOCH ENDS
EPOCH STARTS
TH0 ROB: 4 LSQ: 4 IQ: 0 IPC: 0.0001
TH1 ROB: 104 LSQ: 85 IQ: 96, IPC: 2.1959
TH2 ROB: 4 LSQ: 1 IQ: 0, IPC: 0.0000
TH3 ROB: 4 LSQ: 3 IQ: 0, IPC: 0.0000
EPOCH ENDS
EPOCH STARTS
TH0 ROB: 4 LSQ: 4 IQ: 0 IPC: 0.0001
TH1 ROB: 104 LSQ: 86 IQ: 96, IPC: 2.1959
TH2 ROB: 4 LSQ: 1 IQ: 0, IPC: 0.0000
TH3 ROB: 4 LSQ: 3 IQ: 0, IPC: 0.0000
EPOCH ENDS
EPOCH STARTS
TH0 ROB: 4 LSQ: 4 IQ: 0 IPC: 0.0001
TH1 ROB: 107 LSQ: 88 IQ: 96, IPC: 2.1959
TH2 ROB: 4 LSQ: 1 IQ: 0, IPC: 0.0000
TH3 ROB: 4 LSQ: 3 IQ: 0, IPC: 0.0000
EPOCH ENDS
EPOCH STARTS
TH0 ROB: 4 LSQ: 4 IQ: 0 IPC: 0.0001
TH1 ROB: 105 LSQ: 86 IQ: 96, IPC: 2.1959
TH2 ROB: 4 LSQ: 1 IQ: 0, IPC: 0.0000
TH3 ROB: 4 LSQ: 3 IQ: 0, IPC: 0.0000
EPOCH ENDS
EPOCH STARTS
TH0 ROB: 4 LSQ: 4 IQ: 0 IPC: 0.0001
TH1 ROB: 105 LSQ: 85 IQ: 96, IPC: 2.1959
TH2 ROB: 4 LSQ: 1 IQ: 0, IPC: 0.0000
TH3 ROB: 4 LSQ: 3 IQ: 0, IPC: 0.0000
EPOCH ENDS
EPOCH STARTS
TH0 ROB: 4 LSQ: 4 IQ: 0 IPC: 0.0001
TH1 ROB: 104 LSQ: 85 IQ: 96, IPC: 2.1959
TH2 ROB: 4 LSQ: 1 IQ: 0, IPC: 0.0000
TH3 ROB: 4 LSQ: 3 IQ: 0, IPC: 0.0000
EPOCH ENDS
EPOCH STARTS
TH0 ROB: 4 LSQ: 4 IQ: 0 IPC: 0.0001
TH1 ROB: 105 LSQ: 87 IQ: 96, IPC: 2.1959
TH2 ROB: 4 LSQ: 1 IQ: 0, IPC: 0.0000
TH3 ROB: 4 LSQ: 3 IQ: 0, IPC: 0.0000
EPOCH ENDS
EPOCH STARTS
TH0 ROB: 4 LSQ: 4 IQ: 0 IPC: 0.0001
TH1 ROB: 105 LSQ: 86 IQ: 96, IPC: 2.1959
TH2 ROB: 4 LSQ: 1 IQ: 0, IPC: 0.0000
TH3 ROB: 4 LSQ: 3 IQ: 0, IPC: 0.0000
EPOCH ENDS
EPOCH STARTS
TH0 ROB: 4 LSQ: 4 IQ: 0 IPC: 0.0001
TH1 ROB: 104 LSQ: 85 IQ: 96, IPC: 2.1959
TH2 ROB: 4 LSQ: 1 IQ: 0, IPC: 0.0000
TH3 ROB: 4 LSQ: 3 IQ: 0, IPC: 0.0000
EPOCH ENDS
EPOCH STARTS
TH0 ROB: 4 LSQ: 4 IQ: 0 IPC: 0.0001
TH1 ROB: 105 LSQ: 86 IQ: 96, IPC: 2.1959
TH2 ROB: 4 LSQ: 1 IQ: 0, IPC: 0.0000
TH3 ROB: 4 LSQ: 3 IQ: 0, IPC: 0.0000
EPOCH ENDS
EPOCH STARTS
TH0 ROB: 4 LSQ: 4 IQ: 0 IPC: 0.0001
TH1 ROB: 105 LSQ: 87 IQ: 96, IPC: 2.1959
TH2 ROB: 4 LSQ: 1 IQ: 0, IPC: 0.0000
TH3 ROB: 4 LSQ: 3 IQ: 0, IPC: 0.0000
EPOCH ENDS
EPOCH STARTS
TH0 ROB: 4 LSQ: 4 IQ: 0 IPC: 0.0001
TH1 ROB: 105 LSQ: 87 IQ: 96, IPC: 2.1959
TH2 ROB: 4 LSQ: 1 IQ: 0, IPC: 0.0000
TH3 ROB: 4 LSQ: 3 IQ: 0, IPC: 0.0000
EPOCH ENDS
EPOCH STARTS
TH0 ROB: 4 LSQ: 4 IQ: 0 IPC: 0.0001
TH1 ROB: 106 LSQ: 87 IQ: 96, IPC: 2.1959
TH2 ROB: 4 LSQ: 1 IQ: 0, IPC: 0.0000
TH3 ROB: 4 LSQ: 3 IQ: 0, IPC: 0.0000
EPOCH ENDS
EPOCH STARTS
TH0 ROB: 4 LSQ: 4 IQ: 0 IPC: 0.0001
TH1 ROB: 104 LSQ: 85 IQ: 96, IPC: 2.1959
TH2 ROB: 4 LSQ: 1 IQ: 0, IPC: 0.0000
TH3 ROB: 4 LSQ: 3 IQ: 0, IPC: 0.0000
EPOCH ENDS
EPOCH STARTS
TH0 ROB: 4 LSQ: 4 IQ: 0 IPC: 0.0001
TH1 ROB: 104 LSQ: 85 IQ: 96, IPC: 2.1959
TH2 ROB: 4 LSQ: 1 IQ: 0, IPC: 0.0000
TH3 ROB: 4 LSQ: 3 IQ: 0, IPC: 0.0000
EPOCH ENDS
EPOCH STARTS
TH0 ROB: 4 LSQ: 4 IQ: 0 IPC: 0.0001
TH1 ROB: 105 LSQ: 87 IQ: 96, IPC: 2.1959
TH2 ROB: 4 LSQ: 1 IQ: 0, IPC: 0.0000
TH3 ROB: 4 LSQ: 3 IQ: 0, IPC: 0.0000
EPOCH ENDS
EPOCH STARTS
TH0 ROB: 4 LSQ: 4 IQ: 0 IPC: 0.0001
TH1 ROB: 106 LSQ: 87 IQ: 96, IPC: 2.1959
TH2 ROB: 4 LSQ: 1 IQ: 0, IPC: 0.0000
TH3 ROB: 4 LSQ: 3 IQ: 0, IPC: 0.0000
EPOCH ENDS
EPOCH STARTS
TH0 ROB: 4 LSQ: 4 IQ: 0 IPC: 0.0001
TH1 ROB: 106 LSQ: 87 IQ: 96, IPC: 2.1959
TH2 ROB: 4 LSQ: 1 IQ: 0, IPC: 0.0000
TH3 ROB: 4 LSQ: 3 IQ: 0, IPC: 0.0000
EPOCH ENDS
EPOCH STARTS
TH0 ROB: 4 LSQ: 4 IQ: 0 IPC: 0.0001
TH1 ROB: 106 LSQ: 87 IQ: 96, IPC: 2.1959
TH2 ROB: 4 LSQ: 1 IQ: 0, IPC: 0.0000
TH3 ROB: 4 LSQ: 3 IQ: 0, IPC: 0.0000
EPOCH ENDS
EPOCH STARTS
TH0 ROB: 4 LSQ: 4 IQ: 0 IPC: 0.0001
TH1 ROB: 104 LSQ: 86 IQ: 96, IPC: 2.1959
TH2 ROB: 4 LSQ: 1 IQ: 0, IPC: 0.0000
TH3 ROB: 4 LSQ: 3 IQ: 0, IPC: 0.0000
EPOCH ENDS
EPOCH STARTS
TH0 ROB: 4 LSQ: 4 IQ: 0 IPC: 0.0001
TH1 ROB: 104 LSQ: 87 IQ: 96, IPC: 2.1959
TH2 ROB: 4 LSQ: 1 IQ: 0, IPC: 0.0000
TH3 ROB: 4 LSQ: 3 IQ: 0, IPC: 0.0000
EPOCH ENDS
EPOCH STARTS
TH0 ROB: 4 LSQ: 4 IQ: 0 IPC: 0.0001
TH1 ROB: 105 LSQ: 86 IQ: 96, IPC: 2.1959
TH2 ROB: 4 LSQ: 1 IQ: 0, IPC: 0.0000
TH3 ROB: 4 LSQ: 3 IQ: 0, IPC: 0.0000
EPOCH ENDS
EPOCH STARTS
TH0 ROB: 4 LSQ: 4 IQ: 0 IPC: 0.0001
TH1 ROB: 105 LSQ: 86 IQ: 96, IPC: 2.1960
TH2 ROB: 4 LSQ: 1 IQ: 0, IPC: 0.0000
TH3 ROB: 4 LSQ: 3 IQ: 0, IPC: 0.0000
EPOCH ENDS
EPOCH STARTS
TH0 ROB: 4 LSQ: 4 IQ: 0 IPC: 0.0001
TH1 ROB: 106 LSQ: 87 IQ: 96, IPC: 2.1960
TH2 ROB: 4 LSQ: 1 IQ: 0, IPC: 0.0000
TH3 ROB: 4 LSQ: 3 IQ: 0, IPC: 0.0000
EPOCH ENDS
EPOCH STARTS
TH0 ROB: 4 LSQ: 4 IQ: 0 IPC: 0.0001
TH1 ROB: 105 LSQ: 87 IQ: 96, IPC: 2.1960
TH2 ROB: 4 LSQ: 1 IQ: 0, IPC: 0.0000
TH3 ROB: 4 LSQ: 3 IQ: 0, IPC: 0.0000
EPOCH ENDS
EPOCH STARTS
TH0 ROB: 4 LSQ: 4 IQ: 0 IPC: 0.0001
TH1 ROB: 105 LSQ: 86 IQ: 96, IPC: 2.1960
TH2 ROB: 4 LSQ: 1 IQ: 0, IPC: 0.0000
TH3 ROB: 4 LSQ: 3 IQ: 0, IPC: 0.0000
EPOCH ENDS
EPOCH STARTS
TH0 ROB: 4 LSQ: 4 IQ: 0 IPC: 0.0001
TH1 ROB: 105 LSQ: 86 IQ: 96, IPC: 2.1960
TH2 ROB: 4 LSQ: 1 IQ: 0, IPC: 0.0000
TH3 ROB: 4 LSQ: 3 IQ: 0, IPC: 0.0000
EPOCH ENDS
EPOCH STARTS
TH0 ROB: 4 LSQ: 4 IQ: 0 IPC: 0.0001
TH1 ROB: 105 LSQ: 86 IQ: 96, IPC: 2.1960
TH2 ROB: 4 LSQ: 1 IQ: 0, IPC: 0.0000
TH3 ROB: 4 LSQ: 3 IQ: 0, IPC: 0.0000
EPOCH ENDS
EPOCH STARTS
TH0 ROB: 4 LSQ: 4 IQ: 0 IPC: 0.0001
TH1 ROB: 105 LSQ: 86 IQ: 96, IPC: 2.1960
TH2 ROB: 4 LSQ: 1 IQ: 0, IPC: 0.0000
TH3 ROB: 4 LSQ: 3 IQ: 0, IPC: 0.0000
EPOCH ENDS
EPOCH STARTS
TH0 ROB: 4 LSQ: 4 IQ: 0 IPC: 0.0001
TH1 ROB: 105 LSQ: 87 IQ: 96, IPC: 2.1960
TH2 ROB: 4 LSQ: 1 IQ: 0, IPC: 0.0000
TH3 ROB: 4 LSQ: 3 IQ: 0, IPC: 0.0000
EPOCH ENDS
EPOCH STARTS
TH0 ROB: 4 LSQ: 4 IQ: 0 IPC: 0.0001
TH1 ROB: 105 LSQ: 86 IQ: 96, IPC: 2.1960
TH2 ROB: 4 LSQ: 1 IQ: 0, IPC: 0.0000
TH3 ROB: 4 LSQ: 3 IQ: 0, IPC: 0.0000
EPOCH ENDS
EPOCH STARTS
TH0 ROB: 4 LSQ: 4 IQ: 0 IPC: 0.0001
TH1 ROB: 105 LSQ: 86 IQ: 96, IPC: 2.1960
TH2 ROB: 4 LSQ: 1 IQ: 0, IPC: 0.0000
TH3 ROB: 4 LSQ: 3 IQ: 0, IPC: 0.0000
EPOCH ENDS
EPOCH STARTS
TH0 ROB: 4 LSQ: 4 IQ: 0 IPC: 0.0001
TH1 ROB: 105 LSQ: 86 IQ: 96, IPC: 2.1960
TH2 ROB: 4 LSQ: 1 IQ: 0, IPC: 0.0000
TH3 ROB: 4 LSQ: 3 IQ: 0, IPC: 0.0000
EPOCH ENDS
EPOCH STARTS
TH0 ROB: 4 LSQ: 4 IQ: 0 IPC: 0.0000
TH1 ROB: 105 LSQ: 87 IQ: 96, IPC: 2.1960
TH2 ROB: 4 LSQ: 1 IQ: 0, IPC: 0.0000
TH3 ROB: 4 LSQ: 3 IQ: 0, IPC: 0.0000
EPOCH ENDS
EPOCH STARTS
TH0 ROB: 4 LSQ: 4 IQ: 0 IPC: 0.0000
TH1 ROB: 105 LSQ: 88 IQ: 96, IPC: 2.1960
TH2 ROB: 4 LSQ: 1 IQ: 0, IPC: 0.0000
TH3 ROB: 4 LSQ: 3 IQ: 0, IPC: 0.0000
EPOCH ENDS
EPOCH STARTS
TH0 ROB: 4 LSQ: 4 IQ: 0 IPC: 0.0000
TH1 ROB: 104 LSQ: 85 IQ: 96, IPC: 2.1960
TH2 ROB: 4 LSQ: 1 IQ: 0, IPC: 0.0000
TH3 ROB: 4 LSQ: 3 IQ: 0, IPC: 0.0000
EPOCH ENDS
EPOCH STARTS
TH0 ROB: 4 LSQ: 4 IQ: 0 IPC: 0.0000
TH1 ROB: 104 LSQ: 85 IQ: 96, IPC: 2.1960
TH2 ROB: 4 LSQ: 1 IQ: 0, IPC: 0.0000
TH3 ROB: 4 LSQ: 3 IQ: 0, IPC: 0.0000
EPOCH ENDS
EPOCH STARTS
TH0 ROB: 4 LSQ: 4 IQ: 0 IPC: 0.0000
TH1 ROB: 105 LSQ: 86 IQ: 96, IPC: 2.1960
TH2 ROB: 4 LSQ: 1 IQ: 0, IPC: 0.0000
TH3 ROB: 4 LSQ: 3 IQ: 0, IPC: 0.0000
EPOCH ENDS
EPOCH STARTS
TH0 ROB: 4 LSQ: 4 IQ: 0 IPC: 0.0000
TH1 ROB: 105 LSQ: 87 IQ: 96, IPC: 2.1960
TH2 ROB: 4 LSQ: 1 IQ: 0, IPC: 0.0000
TH3 ROB: 4 LSQ: 3 IQ: 0, IPC: 0.0000
EPOCH ENDS
EPOCH STARTS
TH0 ROB: 4 LSQ: 4 IQ: 0 IPC: 0.0000
TH1 ROB: 106 LSQ: 87 IQ: 96, IPC: 2.1960
TH2 ROB: 4 LSQ: 1 IQ: 0, IPC: 0.0000
TH3 ROB: 4 LSQ: 3 IQ: 0, IPC: 0.0000
EPOCH ENDS
EPOCH STARTS
TH0 ROB: 4 LSQ: 4 IQ: 0 IPC: 0.0000
TH1 ROB: 104 LSQ: 85 IQ: 96, IPC: 2.1960
TH2 ROB: 4 LSQ: 1 IQ: 0, IPC: 0.0000
TH3 ROB: 4 LSQ: 3 IQ: 0, IPC: 0.0000
EPOCH ENDS
EPOCH STARTS
TH0 ROB: 4 LSQ: 4 IQ: 0 IPC: 0.0000
TH1 ROB: 104 LSQ: 85 IQ: 96, IPC: 2.1960
TH2 ROB: 4 LSQ: 1 IQ: 0, IPC: 0.0000
TH3 ROB: 4 LSQ: 3 IQ: 0, IPC: 0.0000
EPOCH ENDS
EPOCH STARTS
TH0 ROB: 4 LSQ: 4 IQ: 0 IPC: 0.0000
TH1 ROB: 104 LSQ: 85 IQ: 96, IPC: 2.1960
TH2 ROB: 4 LSQ: 1 IQ: 0, IPC: 0.0000
TH3 ROB: 4 LSQ: 3 IQ: 0, IPC: 0.0000
EPOCH ENDS
EPOCH STARTS
TH0 ROB: 4 LSQ: 4 IQ: 0 IPC: 0.0000
TH1 ROB: 105 LSQ: 87 IQ: 96, IPC: 2.1960
TH2 ROB: 4 LSQ: 1 IQ: 0, IPC: 0.0000
TH3 ROB: 4 LSQ: 3 IQ: 0, IPC: 0.0000
EPOCH ENDS
EPOCH STARTS
TH0 ROB: 4 LSQ: 4 IQ: 0 IPC: 0.0000
TH1 ROB: 105 LSQ: 86 IQ: 96, IPC: 2.1960
TH2 ROB: 4 LSQ: 1 IQ: 0, IPC: 0.0000
TH3 ROB: 4 LSQ: 3 IQ: 0, IPC: 0.0000
EPOCH ENDS
EPOCH STARTS
TH0 ROB: 4 LSQ: 4 IQ: 0 IPC: 0.0000
TH1 ROB: 104 LSQ: 85 IQ: 96, IPC: 2.1960
TH2 ROB: 4 LSQ: 1 IQ: 0, IPC: 0.0000
TH3 ROB: 4 LSQ: 3 IQ: 0, IPC: 0.0000
EPOCH ENDS
EPOCH STARTS
TH0 ROB: 4 LSQ: 4 IQ: 0 IPC: 0.0000
TH1 ROB: 104 LSQ: 85 IQ: 96, IPC: 2.1960
TH2 ROB: 4 LSQ: 1 IQ: 0, IPC: 0.0000
TH3 ROB: 4 LSQ: 3 IQ: 0, IPC: 0.0000
EPOCH ENDS
EPOCH STARTS
TH0 ROB: 4 LSQ: 4 IQ: 0 IPC: 0.0000
TH1 ROB: 104 LSQ: 87 IQ: 96, IPC: 2.1960
TH2 ROB: 4 LSQ: 1 IQ: 0, IPC: 0.0000
TH3 ROB: 4 LSQ: 3 IQ: 0, IPC: 0.0000
EPOCH ENDS
EPOCH STARTS
TH0 ROB: 4 LSQ: 4 IQ: 0 IPC: 0.0000
TH1 ROB: 105 LSQ: 87 IQ: 96, IPC: 2.1960
TH2 ROB: 4 LSQ: 1 IQ: 0, IPC: 0.0000
TH3 ROB: 4 LSQ: 3 IQ: 0, IPC: 0.0000
EPOCH ENDS
EPOCH STARTS
TH0 ROB: 4 LSQ: 4 IQ: 0 IPC: 0.0000
TH1 ROB: 105 LSQ: 85 IQ: 96, IPC: 2.1960
TH2 ROB: 4 LSQ: 1 IQ: 0, IPC: 0.0000
TH3 ROB: 4 LSQ: 3 IQ: 0, IPC: 0.0000
EPOCH ENDS
EPOCH STARTS
TH0 ROB: 4 LSQ: 4 IQ: 0 IPC: 0.0000
TH1 ROB: 104 LSQ: 85 IQ: 96, IPC: 2.1960
TH2 ROB: 4 LSQ: 1 IQ: 0, IPC: 0.0000
TH3 ROB: 4 LSQ: 3 IQ: 0, IPC: 0.0000
EPOCH ENDS
EPOCH STARTS
TH0 ROB: 4 LSQ: 4 IQ: 0 IPC: 0.0000
TH1 ROB: 104 LSQ: 85 IQ: 96, IPC: 2.1960
TH2 ROB: 4 LSQ: 1 IQ: 0, IPC: 0.0000
TH3 ROB: 4 LSQ: 3 IQ: 0, IPC: 0.0000
EPOCH ENDS
EPOCH STARTS
TH0 ROB: 4 LSQ: 4 IQ: 0 IPC: 0.0000
TH1 ROB: 104 LSQ: 86 IQ: 96, IPC: 2.1960
TH2 ROB: 4 LSQ: 1 IQ: 0, IPC: 0.0000
TH3 ROB: 4 LSQ: 3 IQ: 0, IPC: 0.0000
EPOCH ENDS
EPOCH STARTS
TH0 ROB: 4 LSQ: 4 IQ: 0 IPC: 0.0000
TH1 ROB: 107 LSQ: 88 IQ: 96, IPC: 2.1960
TH2 ROB: 4 LSQ: 1 IQ: 0, IPC: 0.0000
TH3 ROB: 4 LSQ: 3 IQ: 0, IPC: 0.0000
EPOCH ENDS
EPOCH STARTS
TH0 ROB: 4 LSQ: 4 IQ: 0 IPC: 0.0000
TH1 ROB: 105 LSQ: 86 IQ: 96, IPC: 2.1960
TH2 ROB: 4 LSQ: 1 IQ: 0, IPC: 0.0000
TH3 ROB: 4 LSQ: 3 IQ: 0, IPC: 0.0000
EPOCH ENDS
EPOCH STARTS
TH0 ROB: 4 LSQ: 4 IQ: 0 IPC: 0.0000
TH1 ROB: 105 LSQ: 85 IQ: 96, IPC: 2.1960
TH2 ROB: 4 LSQ: 1 IQ: 0, IPC: 0.0000
TH3 ROB: 4 LSQ: 3 IQ: 0, IPC: 0.0000
EPOCH ENDS
EPOCH STARTS
TH0 ROB: 4 LSQ: 4 IQ: 0 IPC: 0.0000
TH1 ROB: 104 LSQ: 85 IQ: 96, IPC: 2.1960
TH2 ROB: 4 LSQ: 1 IQ: 0, IPC: 0.0000
TH3 ROB: 4 LSQ: 3 IQ: 0, IPC: 0.0000
EPOCH ENDS
EPOCH STARTS
TH0 ROB: 4 LSQ: 4 IQ: 0 IPC: 0.0000
TH1 ROB: 105 LSQ: 87 IQ: 96, IPC: 2.1960
TH2 ROB: 4 LSQ: 1 IQ: 0, IPC: 0.0000
TH3 ROB: 4 LSQ: 3 IQ: 0, IPC: 0.0000
EPOCH ENDS
EPOCH STARTS
TH0 ROB: 4 LSQ: 4 IQ: 0 IPC: 0.0000
TH1 ROB: 105 LSQ: 86 IQ: 96, IPC: 2.1960
TH2 ROB: 4 LSQ: 1 IQ: 0, IPC: 0.0000
TH3 ROB: 4 LSQ: 3 IQ: 0, IPC: 0.0000
EPOCH ENDS
EPOCH STARTS
TH0 ROB: 4 LSQ: 4 IQ: 0 IPC: 0.0000
TH1 ROB: 104 LSQ: 85 IQ: 96, IPC: 2.1960
TH2 ROB: 4 LSQ: 1 IQ: 0, IPC: 0.0000
TH3 ROB: 4 LSQ: 3 IQ: 0, IPC: 0.0000
EPOCH ENDS
EPOCH STARTS
TH0 ROB: 4 LSQ: 4 IQ: 0 IPC: 0.0000
TH1 ROB: 105 LSQ: 86 IQ: 96, IPC: 2.1960
TH2 ROB: 4 LSQ: 1 IQ: 0, IPC: 0.0000
TH3 ROB: 4 LSQ: 3 IQ: 0, IPC: 0.0000
EPOCH ENDS
EPOCH STARTS
TH0 ROB: 4 LSQ: 4 IQ: 0 IPC: 0.0000
TH1 ROB: 105 LSQ: 87 IQ: 96, IPC: 2.1960
TH2 ROB: 4 LSQ: 1 IQ: 0, IPC: 0.0000
TH3 ROB: 4 LSQ: 3 IQ: 0, IPC: 0.0000
EPOCH ENDS
EPOCH STARTS
TH0 ROB: 4 LSQ: 4 IQ: 0 IPC: 0.0000
TH1 ROB: 105 LSQ: 87 IQ: 96, IPC: 2.1960
TH2 ROB: 4 LSQ: 1 IQ: 0, IPC: 0.0000
TH3 ROB: 4 LSQ: 3 IQ: 0, IPC: 0.0000
EPOCH ENDS
EPOCH STARTS
TH0 ROB: 4 LSQ: 4 IQ: 0 IPC: 0.0000
TH1 ROB: 106 LSQ: 87 IQ: 96, IPC: 2.1960
TH2 ROB: 4 LSQ: 1 IQ: 0, IPC: 0.0000
TH3 ROB: 4 LSQ: 3 IQ: 0, IPC: 0.0000
EPOCH ENDS
EPOCH STARTS
TH0 ROB: 4 LSQ: 4 IQ: 0 IPC: 0.0000
TH1 ROB: 104 LSQ: 85 IQ: 96, IPC: 2.1960
TH2 ROB: 4 LSQ: 1 IQ: 0, IPC: 0.0000
TH3 ROB: 4 LSQ: 3 IQ: 0, IPC: 0.0000
EPOCH ENDS
EPOCH STARTS
TH0 ROB: 4 LSQ: 4 IQ: 0 IPC: 0.0000
TH1 ROB: 104 LSQ: 85 IQ: 96, IPC: 2.1960
TH2 ROB: 4 LSQ: 1 IQ: 0, IPC: 0.0000
TH3 ROB: 4 LSQ: 3 IQ: 0, IPC: 0.0000
EPOCH ENDS
EPOCH STARTS
TH0 ROB: 4 LSQ: 4 IQ: 0 IPC: 0.0000
TH1 ROB: 105 LSQ: 87 IQ: 96, IPC: 2.1960
TH2 ROB: 4 LSQ: 1 IQ: 0, IPC: 0.0000
TH3 ROB: 4 LSQ: 3 IQ: 0, IPC: 0.0000
EPOCH ENDS
EPOCH STARTS
TH0 ROB: 4 LSQ: 4 IQ: 0 IPC: 0.0000
TH1 ROB: 106 LSQ: 87 IQ: 96, IPC: 2.1960
TH2 ROB: 4 LSQ: 1 IQ: 0, IPC: 0.0000
TH3 ROB: 4 LSQ: 3 IQ: 0, IPC: 0.0000
EPOCH ENDS
EPOCH STARTS
TH0 ROB: 4 LSQ: 4 IQ: 0 IPC: 0.0000
TH1 ROB: 106 LSQ: 87 IQ: 96, IPC: 2.1960
TH2 ROB: 4 LSQ: 1 IQ: 0, IPC: 0.0000
TH3 ROB: 4 LSQ: 3 IQ: 0, IPC: 0.0000
EPOCH ENDS
EPOCH STARTS
TH0 ROB: 4 LSQ: 4 IQ: 0 IPC: 0.0000
TH1 ROB: 106 LSQ: 87 IQ: 96, IPC: 2.1960
TH2 ROB: 4 LSQ: 1 IQ: 0, IPC: 0.0000
TH3 ROB: 4 LSQ: 3 IQ: 0, IPC: 0.0000
EPOCH ENDS
EPOCH STARTS
TH0 ROB: 4 LSQ: 4 IQ: 0 IPC: 0.0000
TH1 ROB: 104 LSQ: 86 IQ: 96, IPC: 2.1960
TH2 ROB: 4 LSQ: 1 IQ: 0, IPC: 0.0000
TH3 ROB: 4 LSQ: 3 IQ: 0, IPC: 0.0000
EPOCH ENDS
EPOCH STARTS
TH0 ROB: 4 LSQ: 4 IQ: 0 IPC: 0.0000
TH1 ROB: 104 LSQ: 87 IQ: 96, IPC: 2.1960
TH2 ROB: 4 LSQ: 1 IQ: 0, IPC: 0.0000
TH3 ROB: 4 LSQ: 3 IQ: 0, IPC: 0.0000
EPOCH ENDS
EPOCH STARTS
TH0 ROB: 4 LSQ: 4 IQ: 0 IPC: 0.0000
TH1 ROB: 105 LSQ: 86 IQ: 96, IPC: 2.1960
TH2 ROB: 4 LSQ: 1 IQ: 0, IPC: 0.0000
TH3 ROB: 4 LSQ: 3 IQ: 0, IPC: 0.0000
[...]
Thread_3_cpred_bimod.retstack_pops            0 # total number of address popped off of ret-addr stack
Thread_3_cpred_bimod.used_ras.PP            0 # total number of RAS predictions used
Thread_3_cpred_bimod.ras_hits.PP            0 # total number of RAS hits
Thread_3_cpred_bimod.ras_rate.PP <error: divide by zero> # RAS prediction rate (i.e., RAS hits/used RAS)
il1.accesses              682551563 # total number of accesses
il1.hits                  682427931 # total number of hits
il1.misses                   123632 # total number of misses
il1.replacements             123632 # total number of replacements
il1.writebacks                    0 # total number of writebacks
il1.invalidations                 0 # total number of invalidations
il1.miss_rate                0.0002 # miss rate (i.e., misses/ref)
il1.repl_rate                0.0002 # replacement rate (i.e., repls/ref)
il1.wb_rate                  0.0000 # writeback rate (i.e., wrbks/ref)
il1.inv_rate                 0.0000 # invalidation rate (i.e., invs/ref)
dl1.accesses              347595406 # total number of accesses
dl1.hits                  321844724 # total number of hits
dl1.misses                 25750682 # total number of misses
dl1.replacements           25750682 # total number of replacements
dl1.writebacks             25148618 # total number of writebacks
dl1.invalidations                 0 # total number of invalidations
dl1.miss_rate                0.0741 # miss rate (i.e., misses/ref)
dl1.repl_rate                0.0741 # replacement rate (i.e., repls/ref)
dl1.wb_rate                  0.0724 # writeback rate (i.e., wrbks/ref)
dl1.inv_rate                 0.0000 # invalidation rate (i.e., invs/ref)
ul2.accesses               51022932 # total number of accesses
ul2.hits                   35753649 # total number of hits
ul2.misses                 15269283 # total number of misses
ul2.replacements           15269283 # total number of replacements
ul2.writebacks             13581567 # total number of writebacks
ul2.invalidations                 0 # total number of invalidations
ul2.miss_rate                0.2993 # miss rate (i.e., misses/ref)
ul2.repl_rate                0.2993 # replacement rate (i.e., repls/ref)
ul2.wb_rate                  0.2662 # writeback rate (i.e., wrbks/ref)
ul2.inv_rate                 0.0000 # invalidation rate (i.e., invs/ref)
itlb.accesses             682551563 # total number of accesses
itlb.hits                 682545377 # total number of hits
itlb.misses                    6186 # total number of misses
itlb.replacements              6186 # total number of replacements
itlb.writebacks                   0 # total number of writebacks
itlb.invalidations                0 # total number of invalidations
itlb.miss_rate               0.0000 # miss rate (i.e., misses/ref)
itlb.repl_rate               0.0000 # replacement rate (i.e., repls/ref)
itlb.wb_rate                 0.0000 # writeback rate (i.e., wrbks/ref)
itlb.inv_rate                0.0000 # invalidation rate (i.e., invs/ref)
dtlb.accesses             348542642 # total number of accesses
dtlb.hits                 348066378 # total number of hits
dtlb.misses                  476264 # total number of misses
dtlb.replacements            476264 # total number of replacements
dtlb.writebacks                   0 # total number of writebacks
dtlb.invalidations                0 # total number of invalidations
dtlb.miss_rate               0.0014 # miss rate (i.e., misses/ref)
dtlb.repl_rate               0.0014 # replacement rate (i.e., repls/ref)
dtlb.wb_rate                 0.0000 # writeback rate (i.e., wrbks/ref)
dtlb.inv_rate                0.0000 # invalidation rate (i.e., invs/ref)
sim_invalid_addrs                 0 # total non-speculative bogus addresses seen (debug var)
ld_text_base           0x0120000000 # program text (code) segment base
mem->ld_text_size            401408 # program text (code) size in bytes
mem->ld_data_base      0x0140000000 # program initialized data segment base
mem->ld_data_size             70816 # program init'ed `.data' and uninit'ed `.bss' size in bytes
mem->ld_stack_base     0x011ff9b000 # program stack segment base (highest address in stack)
mem->ld_stack_size            16384 # program initial stack size
mem->ld_prog_entry     0x012000ff40 # program entry point (initial PC)
mem->ld_environ_base   0x011ff97000 # program environment base address address
mem->ld_target_big_endian            0 # target executable endian-ness, non-zero if big endian
mem_0.page_count               4157 # total number of pages allocated
mem_0.page_mem               33256k # total size of memory pages allocated
mem_0.ptab_misses              6371 # total first level page table misses
mem_0.ptab_accesses       811380492 # total page table accesses
mem_0.ptab_miss_rate         0.0000 # first level page table miss rate
ld_text_base           0x0120000000 # program text (code) segment base
mem->ld_text_size            352256 # program text (code) size in bytes
mem->ld_data_base      0x0140000000 # program initialized data segment base
mem->ld_data_size            121360 # program init'ed `.data' and uninit'ed `.bss' size in bytes
mem->ld_stack_base     0x011ff9b000 # program stack segment base (highest address in stack)
mem->ld_stack_size            16384 # program initial stack size
mem->ld_prog_entry     0x0120000300 # program entry point (initial PC)
mem->ld_environ_base   0x011ff97000 # program environment base address address
mem->ld_target_big_endian            0 # target executable endian-ness, non-zero if big endian
mem_0.page_count              65215 # total number of pages allocated
mem_0.page_mem               33256k # total size of memory pages allocated
mem_0.ptab_misses           3883652 # total first level page table misses
mem_0.ptab_accesses      4296040232 # total page table accesses
mem_0.ptab_miss_rate         0.0000 # first level page table miss rate
ld_text_base           0x0120000000 # program text (code) segment base
mem->ld_text_size            974848 # program text (code) size in bytes
mem->ld_data_base      0x0140000000 # program initialized data segment base
mem->ld_data_size             79184 # program init'ed `.data' and uninit'ed `.bss' size in bytes
mem->ld_stack_base     0x011ff9b000 # program stack segment base (highest address in stack)
mem->ld_stack_size            16384 # program initial stack size
mem->ld_prog_entry     0x0120015580 # program entry point (initial PC)
mem->ld_environ_base   0x011ff97000 # program environment base address address
mem->ld_target_big_endian            0 # target executable endian-ness, non-zero if big endian
mem_0.page_count                178 # total number of pages allocated
mem_0.page_mem               33256k # total size of memory pages allocated
mem_0.ptab_misses            498340 # total first level page table misses
mem_0.ptab_accesses       813343136 # total page table accesses
mem_0.ptab_miss_rate         0.0000 # first level page table miss rate
ld_text_base           0x0120000000 # program text (code) segment base
mem->ld_text_size            507904 # program text (code) size in bytes
mem->ld_data_base      0x0140000000 # program initialized data segment base
mem->ld_data_size        1172354816 # program init'ed `.data' and uninit'ed `.bss' size in bytes
mem->ld_stack_base     0x011ff9b000 # program stack segment base (highest address in stack)
mem->ld_stack_size            16384 # program initial stack size
mem->ld_prog_entry     0x0120000300 # program entry point (initial PC)
mem->ld_environ_base   0x011ff97000 # program environment base address address
mem->ld_target_big_endian            0 # target executable endian-ness, non-zero if big endian
mem_0.page_count              21375 # total number of pages allocated
mem_0.page_mem               33256k # total size of memory pages allocated
mem_0.ptab_misses             27586 # total first level page table misses
mem_0.ptab_accesses      1236226810 # total page table accesses
mem_0.ptab_miss_rate         0.0000 # first level page table miss rate
rename_power           170831330.8521 # total power usage of rename unit
bpred_power            1130781596.2667 # total power usage of bpred unit
window_power           3569047442.0555 # total power usage of instruction window
lsq_power              1992927240.4008 # total power usage of load/store queue
regfile_power          893118024.3201 # total power usage of arch. regfile
icache_power           1058450497.7872 # total power usage of icache
dcache_power           2311943843.8834 # total power usage of dcache
dcache2_power          1300033981.9295 # total power usage of dcache2
alu_power              4735293863.5147 # total power usage of alu
falu_power             3570261239.8660 # total power usage of falu
resultbus_power        2253231538.7770 # total power usage of resultbus
clock_power            7621587330.2502 # total power usage of clock
avg_rename_power             0.6833 # avg power usage of rename unit
avg_bpred_power              4.5231 # avg power usage of bpred unit
avg_window_power            14.2762 # avg power usage of instruction window
avg_lsq_power                7.9717 # avg power usage of lsq
avg_regfile_power            3.5725 # avg power usage of arch. regfile
avg_icache_power             4.2338 # avg power usage of icache
avg_dcache_power             9.2478 # avg power usage of dcache
avg_dcache2_power            5.2001 # avg power usage of dcache2
avg_alu_power               18.9412 # avg power usage of alu
avg_falu_power              14.2810 # avg power usage of falu
avg_resultbus_power          9.0129 # avg power usage of resultbus
avg_clock_power             30.4863 # avg power usage of clock
fetch_stage_power      2189232094.0540 # total power usage of fetch stage
dispatch_stage_power   170831330.8521 # total power usage of dispatch stage
issue_stage_power      16162477910.5610 # total power usage of issue stage
avg_fetch_power              8.7569 # average power of fetch unit per cycle
avg_dispatch_power           0.6833 # average power of dispatch unit per cycle
avg_issue_power             64.6499 # average power of issue unit per cycle
total_power            27037246690.0374 # total power per cycle
avg_total_power_cycle      108.1490 # average total power per cycle
avg_total_power_cycle_nofp_nod2      88.6678 # average total power per cycle
avg_total_power_insn        40.0587 # average total power per insn
avg_total_power_insn_nofp_nod2      32.8428 # average total power per insn
rename_power_cc1       167092946.8561 # total power usage of rename unit_cc1
bpred_power_cc1        206279979.0177 # total power usage of bpred unit_cc1
window_power_cc1       3528295695.7270 # total power usage of instruction window_cc1
lsq_power_cc1          1265311943.8905 # total power usage of lsq_cc1
regfile_power_cc1      728765497.2045 # total power usage of arch. regfile_cc1
icache_power_cc1       988499837.7124 # total power usage of icache_cc1
dcache_power_cc1       2069495701.4112 # total power usage of dcache_cc1
dcache2_power_cc1      134504632.9371 # total power usage of dcache2_cc1
alu_power_cc1          1363551948.4968 # total power usage of alu_cc1
resultbus_power_cc1    1907703627.0664 # total power usage of resultbus_cc1
clock_power_cc1        5255844152.8710 # total power usage of clock_cc1
avg_rename_power_cc1         0.6684 # avg power usage of rename unit_cc1
avg_bpred_power_cc1          0.8251 # avg power usage of bpred unit_cc1
avg_window_power_cc1        14.1132 # avg power usage of instruction window_cc1
avg_lsq_power_cc1            5.0612 # avg power usage of lsq_cc1
avg_regfile_power_cc1        2.9151 # avg power usage of arch. regfile_cc1
avg_icache_power_cc1         3.9540 # avg power usage of icache_cc1
avg_dcache_power_cc1         8.2780 # avg power usage of dcache_cc1
avg_dcache2_power_cc1        0.5380 # avg power usage of dcache2_cc1
avg_alu_power_cc1            5.4542 # avg power usage of alu_cc1
avg_resultbus_power_cc1       7.6308 # avg power usage of resultbus_cc1
avg_clock_power_cc1         21.0234 # avg power usage of clock_cc1
fetch_stage_power_cc1  1194779816.7301 # total power usage of fetch stage_cc1
dispatch_stage_power_cc1 167092946.8561 # total power usage of dispatch stage_cc1
issue_stage_power_cc1  10268863549.5290 # total power usage of issue stage_cc1
avg_fetch_power_cc1          4.7791 # average power of fetch unit per cycle_cc1
avg_dispatch_power_cc1       0.6684 # average power of dispatch unit per cycle_cc1
avg_issue_power_cc1         41.0755 # average power of issue unit per cycle_cc1
total_power_cycle_cc1  17615345963.1908 # total power per cycle_cc1
avg_total_power_cycle_cc1      70.4614 # average total power per cycle_cc1
avg_total_power_insn_cc1      26.0991 # average total power per insn_cc1
rename_power_cc2       115300908.0829 # total power usage of rename unit_cc2
bpred_power_cc2        113816028.7696 # total power usage of bpred unit_cc2
window_power_cc2       3437084561.4036 # total power usage of instruction window_cc2
lsq_power_cc2          742423520.9222 # total power usage of lsq_cc2
regfile_power_cc2      150240679.4773 # total power usage of arch. regfile_cc2
icache_power_cc2       988499837.7124 # total power usage of icache_cc2
dcache_power_cc2       1607242120.7845 # total power usage of dcache_cc2
dcache2_power_cc2      132663090.6045 # total power usage of dcache2_cc2
alu_power_cc2          782659827.8442 # total power usage of alu_cc2
resultbus_power_cc2    1557568333.0641 # total power usage of resultbus_cc2
clock_power_cc2        4084314038.8604 # total power usage of clock_cc2
avg_rename_power_cc2         0.4612 # avg power usage of rename unit_cc2
avg_bpred_power_cc2          0.4553 # avg power usage of bpred unit_cc2
avg_window_power_cc2        13.7483 # avg power usage of instruction window_cc2
avg_lsq_power_cc2            2.9697 # avg power usage of instruction lsq_cc2
avg_regfile_power_cc2        0.6010 # avg power usage of arch. regfile_cc2
avg_icache_power_cc2         3.9540 # avg power usage of icache_cc2
avg_dcache_power_cc2         6.4290 # avg power usage of dcache_cc2
avg_dcache2_power_cc2        0.5307 # avg power usage of dcache2_cc2
avg_alu_power_cc2            3.1306 # avg power usage of alu_cc2
avg_resultbus_power_cc2       6.2303 # avg power usage of resultbus_cc2
avg_clock_power_cc2         16.3373 # avg power usage of clock_cc2
fetch_stage_power_cc2  1102315866.4820 # total power usage of fetch stage_cc2
dispatch_stage_power_cc2 115300908.0829 # total power usage of dispatch stage_cc2
issue_stage_power_cc2  8259641454.6233 # total power usage of issue stage_cc2
avg_fetch_power_cc2          4.4093 # average power of fetch unit per cycle_cc2
avg_dispatch_power_cc2       0.4612 # average power of dispatch unit per cycle_cc2
avg_issue_power_cc2         33.0386 # average power of issue unit per cycle_cc2
total_power_cycle_cc2  13711812947.5259 # total power per cycle_cc2
avg_total_power_cycle_cc2      54.8473 # average total power per cycle_cc2
avg_total_power_insn_cc2      20.3156 # average total power per insn_cc2
rename_power_cc3       115674746.4933 # total power usage of rename unit_cc3
bpred_power_cc3        206346102.2928 # total power usage of bpred unit_cc3
window_power_cc3       3437152288.1972 # total power usage of instruction window_cc3
lsq_power_cc3          812212818.5123 # total power usage of lsq_cc3
regfile_power_cc3      154768161.8980 # total power usage of arch. regfile_cc3
icache_power_cc3       995494904.1812 # total power usage of icache_cc3
dcache_power_cc3       1643091470.5385 # total power usage of dcache_cc3
dcache2_power_cc3      249261012.9726 # total power usage of dcache2_cc3
alu_power_cc3          1119834022.9752 # total power usage of alu_cc3
resultbus_power_cc3    1557982510.3494 # total power usage of resultbus_cc3
clock_power_cc3        4304589491.0404 # total power usage of clock_cc3
avg_rename_power_cc3         0.4627 # avg power usage of rename unit_cc3
avg_bpred_power_cc3          0.8254 # avg power usage of bpred unit_cc3
avg_window_power_cc3        13.7486 # avg power usage of instruction window_cc3
avg_lsq_power_cc3            3.2489 # avg power usage of instruction lsq_cc3
avg_regfile_power_cc3        0.6191 # avg power usage of arch. regfile_cc3
avg_icache_power_cc3         3.9820 # avg power usage of icache_cc3
avg_dcache_power_cc3         6.5724 # avg power usage of dcache_cc3
avg_dcache2_power_cc3        0.9970 # avg power usage of dcache2_cc3
avg_alu_power_cc3            4.4793 # avg power usage of alu_cc3
avg_resultbus_power_cc3       6.2319 # avg power usage of resultbus_cc3
avg_clock_power_cc3         17.2184 # avg power usage of clock_cc3
fetch_stage_power_cc3  1201841006.4740 # total power usage of fetch stage_cc3
dispatch_stage_power_cc3 115674746.4933 # total power usage of dispatch stage_cc3
issue_stage_power_cc3  8819534123.5452 # total power usage of issue stage_cc3
avg_fetch_power_cc3          4.8074 # average power of fetch unit per cycle_cc3
avg_dispatch_power_cc3       0.4627 # average power of dispatch unit per cycle_cc3
avg_issue_power_cc3         35.2781 # average power of issue unit per cycle_cc3
total_power_cycle_cc3  14596407529.4510 # total power per cycle_cc3
avg_total_power_cycle_cc3      58.3856 # average total power per cycle_cc3
avg_total_power_insn_cc3      21.6262 # average total power per insn_cc3
total_rename_access       674940054 # total number accesses of rename unit
total_bpred_access         50326265 # total number accesses of bpred unit
total_window_access      2571530763 # total number accesses of instruction window
total_lsq_access          348644043 # total number accesses of load/store queue
total_regfile_access      588781478 # total number accesses of arch. regfile
total_icache_access       685638059 # total number accesses of icache
total_dcache_access       347595406 # total number accesses of dcache
total_dcache2_access       51022932 # total number accesses of dcache2
total_alu_access          643009675 # total number accesses of alu
total_resultbus_access    820740843 # total number accesses of resultbus
avg_rename_access            2.6998 # avg number accesses of rename unit
avg_bpred_access             0.2013 # avg number accesses of bpred unit
avg_window_access           10.2861 # avg number accesses of instruction window
avg_lsq_access               1.3946 # avg number accesses of lsq
avg_regfile_access           2.3551 # avg number accesses of arch. regfile
avg_icache_access            2.7426 # avg number accesses of icache
avg_dcache_access            1.3904 # avg number accesses of dcache
avg_dcache2_access           0.2041 # avg number accesses of dcache2
avg_alu_access               2.5720 # avg number accesses of alu
avg_resultbus_access         3.2830 # avg number accesses of resultbus
max_rename_access                 4 # max number accesses of rename unit
max_bpred_access                  6 # max number accesses of bpred unit
max_window_access                74 # max number accesses of instruction window
max_lsq_access                    4 # max number accesses of load/store queue
max_regfile_access               15 # max number accesses of arch. regfile
max_icache_access                 4 # max number accesses of icache
max_dcache_access                 4 # max number accesses of dcache
max_dcache2_access                6 # max number accesses of dcache2
max_alu_access                    4 # max number accesses of alu
max_resultbus_access             67 # max number accesses of resultbus
max_cycle_power_cc1        287.6280 # maximum cycle power usage of cc1
max_cycle_power_cc2        266.9589 # maximum cycle power usage of cc2
max_cycle_power_cc3        269.2072 # maximum cycle power usage of cc3


******* SMT STATS *******
THROUGHPUT IPC: 2.5895

TH0 IPC: 0.4455

TH1 IPC: 1.3073

TH2 IPC: 0.3802

TH3 IPC: 0.4565

