sim-outorder: SimpleScalar/Alpha Tool Set version 3.0 of August, 2003.
Copyright (c) 1994-2003 by Todd M. Austin, Ph.D. and SimpleScalar, LLC.
All Rights Reserved. This version of SimpleScalar is licensed for academic
non-commercial use.  No portion of this work may be used by any commercial
entity, or for any commercial purpose, without the prior written permission
of SimpleScalar, LLC (info@simplescalar.com).


Processor Parameters:
Issue Width: 4
Window Size: 224
Number of Virtual Registers: 32
Number of Physical Registers: 256
Datapath Width: 64
Total Power Consumption: 110.149
Branch Predictor Power Consumption: 4.52313  (4.18%)
 branch target buffer power (W): 4.16837
 local predict power (W): 0.0879711
 global predict power (W): 0.0996078
 chooser power (W): 0.0702439
 RAS power (W): 0.0969383
Rename Logic Power Consumption: 0.683325  (0.632%)
 Instruction Decode Power (W): 0.0159915
 RAT decode_power (W): 0.113514
 RAT wordline_power (W): 0.0493708
 RAT bitline_power (W): 0.493541
 DCL Comparators (W): 0.0109075
Instruction Window Power Consumption: 14.2762  (13.2%)
 tagdrive (W): 0.827064
 tagmatch (W): 0.360565
 Selection Logic (W): 0.0885831
 decode_power (W): 1.16922
 wordline_power (W): 0.0844643
 bitline_power (W): 11.7463
Load/Store Queue Power Consumption: 7.97171  (7.37%)
 tagdrive (W): 3.75392
 tagmatch (W): 1.61238
 decode_power (W): 0.181222
 wordline_power (W): 0.0150119
 bitline_power (W): 2.40917
Arch. Register File Power Consumption: 3.57247  (3.3%)
 decode_power (W): 0.113514
 wordline_power (W): 0.0844643
 bitline_power (W): 3.37449
Result Bus Power Consumption: 9.01293  (8.33%)
Total Clock Power: 30.4863  (28.2%)
Int ALU Power: 4.66013  (4.31%)
FP ALU Power: 14.281  (13.2%)
Instruction Cache Power Consumption: 3.97049  (3.67%)
 decode_power (W): 1.67268
 wordline_power (W): 0.028656
 bitline_power (W): 1.5122
 senseamp_power (W): 0.096
 tagarray_power (W): 0.660946
Itlb_power (W): 0.263317 (0.243%)
Data Cache Power Consumption: 8.34726  (7.72%)
 decode_power (W): 1.44978
 wordline_power (W): 0.196735
 bitline_power (W): 4.58765
 senseamp_power (W): 0.768
 tagarray_power (W): 1.34509
Dtlb_power (W): 0.900515 (0.833%)
Level 2 Cache Power Consumption: 5.20014 (4.81%)
 decode_power (W): 0.41817
 wordline_power (W): 0.0430878
 bitline_power (W): 3.0244
 senseamp_power (W): 0.192
 tagarray_power (W): 1.52247
sim-main: initalizing context 0:libquantumNS.1.arg
args: 0:./libquantum.base.alpha 1:1397 2:8 
sim: loading binary...
sim: loading ./libquantum.base.alpha
warning: section `.comment' ignored...
sim-main: initalizing context 1:milcNS.1.arg
args: 0:./milc.base.alpha 
sim: loading binary...
sim: loading ./milc.base.alpha
sim-main: initalizing context 2:omnetppNS.1.arg
args: 0:./omnetpp.base.alpha 1:./omnetpp.ini 
sim: loading binary...
sim: loading ./omnetpp.base.alpha
warning: section `.comment' ignored...
sim-main: initalizing context 3:zeusmpNS.1.arg
args: 0:./zeusmp.base.alpha 
sim: loading binary...
sim: loading ./zeusmp.base.alpha
sim: command line: ../m-sim_v2.0/sim-outorder libquantumNS.1.arg milcNS.1.arg omnetppNS.1.arg zeusmpNS.1.arg 

sim: simulation started @ Fri Aug 12 04:29:56 2022, options follow:

sim-outorder: This simulator implements a very detailed out-of-order issue
superscalar processor with a two-level memory system and speculative
execution support.  This simulator is a performance simulator, tracking the
latency of all pipeline operations.

# -config                     # load configuration from a file
# -dumpconfig                 # dump configuration to a file
# -h                    false # print help message    
# -v                    false # verbose operation     
# -d                    false # enable debug message  
# -i                    false # start in Dlite debugger
-seed                       1 # random number generator seed (0 for timer seed)
# -q                    false # initialize and terminate immediately
# -redir:sim           <null> # redirect simulator output to file (non-interactive only)
# -redir:prog          <null> # redirect simulated program output to file
-nice                       0 # simulator scheduling priority
-max:inst           250000000 # maximum number of inst's to execute
-fastfwd             10000000 # number of insts skipped before timing starts
# -ptrace              <null> # generate pipetrace, i.e., <fname|stdout|stderr> <range>
-fetch:speed                1 # speed of front-end of machine relative to execution core
-bpred                  bimod # branch predictor type {nottaken|taken|perfect|bimod|2lev|comb}
-bpred:bimod     2048 # bimodal predictor config (<table size>)
-bpred:2lev      1 1024 8 0 # 2-level predictor config (<l1size> <l2size> <hist_size> <xor>)
-bpred:comb      1024 # combining predictor config (<meta_table_size>)
-bpred:ras                  8 # return address stack size (0 for no return stack)
-bpred:btb       512 4 # BTB config (<num_sets> <associativity>)
# -bpred:spec_update       <null> # speculative predictors update in {ID|WB} (default non-spec)
-cpred                  bimod # cache load-latency predictor type {nottaken|taken|perfect|bimod|2lev|comb}
-cpred:bimod     2048 # cache load-latency bimodal predictor config (<table size>)
-cpred:2lev      1 1024 8 0 # cache load-latency 2-level predictor config (<l1size> <l2size> <hist_size> <xor>)
-cpred:comb      1024 # cache load-latency combining predictor config (<meta_table_size>)
-cpred:ras                  0 # return address stack size (0 for no return stack)
-cpred:btb       512 4 # cache load-latency BTB config (<num_sets> <associativity>)
-decode:width               4 # instruction decode B/W (insts/cycle)
-issue:width                4 # instruction issue B/W (insts/cycle)
-issue:inorder          false # run pipeline with in-order issue
-issue:wrongpath         true # issue instructions down wrong execution paths
-commit:width               4 # instruction commit B/W (insts/cycle)
-rob:size                 224 # reorder buffer (ROB) size
-fetch:policy |icount|round_robin|       icount # fetch policy          
-recovery:model        squash # Alpha squash recovery or perfect predition: |squash|perfect|
-iq:size                   96 # issue queue (IQ) size 
-iq:issue_exec_delay            1 # minimum cycles between issue and execution
-fetch_rename_delay            4 # number of cycles between fetch and rename stages
-rename_dispatch_delay            1 # number cycles between rename and dispatch stages
-rf:size                  256 # register file (RF) size for each the INT and FP physical register file)
-lsq:size                 128 # load/store queue (LSQ) size
-cache:dl1       dl1:256:32:4:l # l1 data cache config, i.e., {<config>|none}
-cache:dl1lat               1 # l1 data cache hit latency (in cycles)
-cache:dl2       ul2:1024:64:8:l # l2 data cache config, i.e., {<config>|none}
-cache:dl2lat               6 # l2 data cache hit latency (in cycles)
-cache:il1       il1:512:32:2:l # l1 inst cache config, i.e., {<config>|dl1|dl2|none}
-cache:il1lat               1 # l1 instruction cache hit latency (in cycles)
-cache:il2                dl2 # l2 instruction cache config, i.e., {<config>|dl2|none}
-cache:il2lat               6 # l2 instruction cache hit latency (in cycles)
-cache:flush            false # flush caches on system calls
-cache:icompress        false # convert 64-bit inst addresses to 32-bit inst equivalents
-mem:lat         100 2 # memory access latency (<first_chunk> <inter_chunk>)
-mem:width                  8 # memory access bus width (in bytes)
-tlb:itlb        itlb:16:4096:4:l # instruction TLB config, i.e., {<config>|none}
-tlb:dtlb        dtlb:32:4096:4:l # data TLB config, i.e., {<config>|none}
-tlb:lat                   30 # inst/data TLB miss latency (in cycles)
-res:ialu                   4 # total number of integer ALU's available
-res:imult                  1 # total number of integer multiplier/dividers available
-res:memport                2 # total number of memory system ports available (to CPU)
-res:fpalu                  4 # total number of floating point ALU's available
-res:fpmult                 1 # total number of floating point multiplier/dividers available
# -pcstat              <null> # profile stat(s) against text addr's (mult uses ok)
-power:print_stats         true # print power statistics collected by wattch?

  Pipetrace range arguments are formatted as follows:

    {{@|#}<start>}:{{@|#|+}<end>}

  Both ends of the range are optional, if neither are specified, the entire
  execution is traced.  Ranges that start with a `@' designate an address
  range to be traced, those that start with an `#' designate a cycle count
  range.  All other range values represent an instruction count range.  The
  second argument, if specified with a `+', indicates a value relative
  to the first argument, e.g., 1000:+100 == 1000:1100.  Program symbols may
  be used in all contexts.

    Examples:   -ptrace FOO.trc #0:#1000
                -ptrace BAR.trc @2000:
                -ptrace BLAH.trc :1500
                -ptrace UXXE.trc :
                -ptrace FOOBAR.trc @main:+278

  Branch predictor configuration examples for 2-level predictor:
    Configurations:   N, M, W, X
      N   # entries in first level (# of shift register(s))
      W   width of shift register(s)
      M   # entries in 2nd level (# of counters, or other FSM)
      X   (yes-1/no-0) xor history and address for 2nd level index
    Sample predictors:
      GAg     : 1, W, 2^W, 0
      GAp     : 1, W, M (M > 2^W), 0
      PAg     : N, W, 2^W, 0
      PAp     : N, W, M (M == 2^(N+W)), 0
      gshare  : 1, W, 2^W, 1
  Predictor `comb' combines a bimodal and a 2-level predictor.

  The cache config parameter <config> has the following format:

    <name>:<nsets>:<bsize>:<assoc>:<repl>

    <name>   - name of the cache being defined
    <nsets>  - number of sets in the cache
    <bsize>  - block size of the cache
    <assoc>  - associativity of the cache
    <repl>   - block replacement strategy, 'l'-LRU, 'f'-FIFO, 'r'-random

    Examples:   -cache:dl1 dl1:4096:32:1:l
                -dtlb dtlb:128:4096:32:r

  Cache levels can be unified by pointing a level of the instruction cache
  hierarchy at the data cache hiearchy using the "dl1" and "dl2" cache
  configuration arguments.  Most sensible combinations are supported, e.g.,

    A unified l2 cache (il2 is pointed at dl2):
      -cache:il1 il1:128:64:1:l -cache:il2 dl2
      -cache:dl1 dl1:256:32:1:l -cache:dl2 ul2:1024:64:2:l

    Or, a fully unified cache hierarchy (il1 pointed at dl1):
      -cache:il1 dl1
      -cache:dl1 ul1:256:32:1:l -cache:dl2 ul2:1024:64:2:l



sim: ** fast forwarding insts **
warning: partially supported sigaction() call...
warning: unsupported ioctl call: ioctl(536900702, ...)
sim: ** starting performance simulation **
EPOCH STARTS
TH0 ROB: 4 LSQ: 4 IQ: 0 IPC: 0.0066
TH1 ROB: 104 LSQ: 85 IQ: 96, IPC: 2.1797
TH2 ROB: 4 LSQ: 3 IQ: 0, IPC: 0.0039
TH3 ROB: 4 LSQ: 2 IQ: 0, IPC: 0.0064
EPOCH ENDS
EPOCH STARTS
TH0 ROB: 4 LSQ: 4 IQ: 0 IPC: 0.0033
TH1 ROB: 104 LSQ: 86 IQ: 96, IPC: 2.1879
TH2 ROB: 4 LSQ: 3 IQ: 0, IPC: 0.0019
TH3 ROB: 4 LSQ: 2 IQ: 0, IPC: 0.0032
EPOCH ENDS
EPOCH STARTS
TH0 ROB: 4 LSQ: 4 IQ: 0 IPC: 0.0022
TH1 ROB: 107 LSQ: 88 IQ: 96, IPC: 2.1906
TH2 ROB: 4 LSQ: 3 IQ: 0, IPC: 0.0013
TH3 ROB: 4 LSQ: 2 IQ: 0, IPC: 0.0021
EPOCH ENDS
EPOCH STARTS
TH0 ROB: 4 LSQ: 4 IQ: 0 IPC: 0.0016
TH1 ROB: 105 LSQ: 86 IQ: 96, IPC: 2.1920
TH2 ROB: 4 LSQ: 3 IQ: 0, IPC: 0.0010
TH3 ROB: 4 LSQ: 2 IQ: 0, IPC: 0.0016
EPOCH ENDS
EPOCH STARTS
TH0 ROB: 4 LSQ: 4 IQ: 0 IPC: 0.0013
TH1 ROB: 105 LSQ: 85 IQ: 96, IPC: 2.1928
TH2 ROB: 4 LSQ: 3 IQ: 0, IPC: 0.0008
TH3 ROB: 4 LSQ: 2 IQ: 0, IPC: 0.0013
EPOCH ENDS
EPOCH STARTS
TH0 ROB: 4 LSQ: 4 IQ: 0 IPC: 0.0011
TH1 ROB: 104 LSQ: 85 IQ: 96, IPC: 2.1934
TH2 ROB: 4 LSQ: 3 IQ: 0, IPC: 0.0006
TH3 ROB: 4 LSQ: 2 IQ: 0, IPC: 0.0011
EPOCH ENDS
EPOCH STARTS
TH0 ROB: 4 LSQ: 4 IQ: 0 IPC: 0.0009
TH1 ROB: 105 LSQ: 87 IQ: 96, IPC: 2.1937
TH2 ROB: 4 LSQ: 3 IQ: 0, IPC: 0.0006
TH3 ROB: 4 LSQ: 2 IQ: 0, IPC: 0.0009
EPOCH ENDS
EPOCH STARTS
TH0 ROB: 4 LSQ: 4 IQ: 0 IPC: 0.0008
TH1 ROB: 105 LSQ: 86 IQ: 96, IPC: 2.1940
TH2 ROB: 4 LSQ: 3 IQ: 0, IPC: 0.0005
TH3 ROB: 4 LSQ: 2 IQ: 0, IPC: 0.0008
EPOCH ENDS
EPOCH STARTS
TH0 ROB: 4 LSQ: 4 IQ: 0 IPC: 0.0007
TH1 ROB: 104 LSQ: 85 IQ: 96, IPC: 2.1943
TH2 ROB: 4 LSQ: 3 IQ: 0, IPC: 0.0004
TH3 ROB: 4 LSQ: 2 IQ: 0, IPC: 0.0007
EPOCH ENDS
EPOCH STARTS
TH0 ROB: 4 LSQ: 4 IQ: 0 IPC: 0.0007
TH1 ROB: 105 LSQ: 86 IQ: 96, IPC: 2.1944
TH2 ROB: 4 LSQ: 3 IQ: 0, IPC: 0.0004
TH3 ROB: 4 LSQ: 2 IQ: 0, IPC: 0.0006
EPOCH ENDS
EPOCH STARTS
TH0 ROB: 4 LSQ: 4 IQ: 0 IPC: 0.0006
TH1 ROB: 105 LSQ: 87 IQ: 96, IPC: 2.1946
TH2 ROB: 4 LSQ: 3 IQ: 0, IPC: 0.0004
TH3 ROB: 4 LSQ: 2 IQ: 0, IPC: 0.0006
EPOCH ENDS
EPOCH STARTS
TH0 ROB: 4 LSQ: 4 IQ: 0 IPC: 0.0005
TH1 ROB: 105 LSQ: 87 IQ: 96, IPC: 2.1947
TH2 ROB: 4 LSQ: 3 IQ: 0, IPC: 0.0003
TH3 ROB: 4 LSQ: 2 IQ: 0, IPC: 0.0005
EPOCH ENDS
EPOCH STARTS
TH0 ROB: 4 LSQ: 4 IQ: 0 IPC: 0.0005
TH1 ROB: 106 LSQ: 87 IQ: 96, IPC: 2.1948
TH2 ROB: 4 LSQ: 3 IQ: 0, IPC: 0.0003
TH3 ROB: 4 LSQ: 2 IQ: 0, IPC: 0.0005
EPOCH ENDS
EPOCH STARTS
TH0 ROB: 4 LSQ: 4 IQ: 0 IPC: 0.0005
TH1 ROB: 104 LSQ: 85 IQ: 96, IPC: 2.1949
TH2 ROB: 4 LSQ: 3 IQ: 0, IPC: 0.0003
TH3 ROB: 4 LSQ: 2 IQ: 0, IPC: 0.0005
EPOCH ENDS
EPOCH STARTS
TH0 ROB: 4 LSQ: 4 IQ: 0 IPC: 0.0004
TH1 ROB: 104 LSQ: 85 IQ: 96, IPC: 2.1950
TH2 ROB: 4 LSQ: 3 IQ: 0, IPC: 0.0003
TH3 ROB: 4 LSQ: 2 IQ: 0, IPC: 0.0004
EPOCH ENDS
EPOCH STARTS
TH0 ROB: 4 LSQ: 4 IQ: 0 IPC: 0.0004
TH1 ROB: 105 LSQ: 87 IQ: 96, IPC: 2.1951
TH2 ROB: 4 LSQ: 3 IQ: 0, IPC: 0.0002
TH3 ROB: 4 LSQ: 2 IQ: 0, IPC: 0.0004
EPOCH ENDS
EPOCH STARTS
TH0 ROB: 4 LSQ: 4 IQ: 0 IPC: 0.0004
TH1 ROB: 106 LSQ: 87 IQ: 96, IPC: 2.1951
TH2 ROB: 4 LSQ: 3 IQ: 0, IPC: 0.0002
TH3 ROB: 4 LSQ: 2 IQ: 0, IPC: 0.0004
EPOCH ENDS
EPOCH STARTS
TH0 ROB: 4 LSQ: 4 IQ: 0 IPC: 0.0004
TH1 ROB: 106 LSQ: 87 IQ: 96, IPC: 2.1952
TH2 ROB: 4 LSQ: 3 IQ: 0, IPC: 0.0002
TH3 ROB: 4 LSQ: 2 IQ: 0, IPC: 0.0004
EPOCH ENDS
EPOCH STARTS
TH0 ROB: 4 LSQ: 4 IQ: 0 IPC: 0.0003
TH1 ROB: 106 LSQ: 87 IQ: 96, IPC: 2.1952
TH2 ROB: 4 LSQ: 3 IQ: 0, IPC: 0.0002
TH3 ROB: 4 LSQ: 2 IQ: 0, IPC: 0.0003
EPOCH ENDS
EPOCH STARTS
TH0 ROB: 4 LSQ: 4 IQ: 0 IPC: 0.0003
TH1 ROB: 104 LSQ: 86 IQ: 96, IPC: 2.1953
TH2 ROB: 4 LSQ: 3 IQ: 0, IPC: 0.0002
TH3 ROB: 4 LSQ: 2 IQ: 0, IPC: 0.0003
EPOCH ENDS
EPOCH STARTS
TH0 ROB: 4 LSQ: 4 IQ: 0 IPC: 0.0003
TH1 ROB: 104 LSQ: 87 IQ: 96, IPC: 2.1953
TH2 ROB: 4 LSQ: 3 IQ: 0, IPC: 0.0002
TH3 ROB: 4 LSQ: 2 IQ: 0, IPC: 0.0003
EPOCH ENDS
EPOCH STARTS
TH0 ROB: 4 LSQ: 4 IQ: 0 IPC: 0.0003
TH1 ROB: 105 LSQ: 86 IQ: 96, IPC: 2.1953
TH2 ROB: 4 LSQ: 3 IQ: 0, IPC: 0.0002
TH3 ROB: 4 LSQ: 2 IQ: 0, IPC: 0.0003
EPOCH ENDS
EPOCH STARTS
TH0 ROB: 4 LSQ: 4 IQ: 0 IPC: 0.0003
TH1 ROB: 105 LSQ: 86 IQ: 96, IPC: 2.1954
TH2 ROB: 4 LSQ: 3 IQ: 0, IPC: 0.0002
TH3 ROB: 4 LSQ: 2 IQ: 0, IPC: 0.0003
EPOCH ENDS
EPOCH STARTS
TH0 ROB: 4 LSQ: 4 IQ: 0 IPC: 0.0003
TH1 ROB: 106 LSQ: 87 IQ: 96, IPC: 2.1954
TH2 ROB: 4 LSQ: 3 IQ: 0, IPC: 0.0002
TH3 ROB: 4 LSQ: 2 IQ: 0, IPC: 0.0003
EPOCH ENDS
EPOCH STARTS
TH0 ROB: 4 LSQ: 4 IQ: 0 IPC: 0.0003
TH1 ROB: 105 LSQ: 87 IQ: 96, IPC: 2.1954
TH2 ROB: 4 LSQ: 3 IQ: 0, IPC: 0.0002
TH3 ROB: 4 LSQ: 2 IQ: 0, IPC: 0.0003
EPOCH ENDS
EPOCH STARTS
TH0 ROB: 4 LSQ: 4 IQ: 0 IPC: 0.0003
TH1 ROB: 105 LSQ: 86 IQ: 96, IPC: 2.1954
TH2 ROB: 4 LSQ: 3 IQ: 0, IPC: 0.0001
TH3 ROB: 4 LSQ: 2 IQ: 0, IPC: 0.0002
EPOCH ENDS
EPOCH STARTS
TH0 ROB: 4 LSQ: 4 IQ: 0 IPC: 0.0002
TH1 ROB: 105 LSQ: 86 IQ: 96, IPC: 2.1955
TH2 ROB: 4 LSQ: 3 IQ: 0, IPC: 0.0001
TH3 ROB: 4 LSQ: 2 IQ: 0, IPC: 0.0002
EPOCH ENDS
EPOCH STARTS
TH0 ROB: 4 LSQ: 4 IQ: 0 IPC: 0.0002
TH1 ROB: 105 LSQ: 86 IQ: 96, IPC: 2.1955
TH2 ROB: 4 LSQ: 3 IQ: 0, IPC: 0.0001
TH3 ROB: 4 LSQ: 2 IQ: 0, IPC: 0.0002
EPOCH ENDS
EPOCH STARTS
TH0 ROB: 4 LSQ: 4 IQ: 0 IPC: 0.0002
TH1 ROB: 105 LSQ: 86 IQ: 96, IPC: 2.1955
TH2 ROB: 4 LSQ: 3 IQ: 0, IPC: 0.0001
TH3 ROB: 4 LSQ: 2 IQ: 0, IPC: 0.0002
EPOCH ENDS
EPOCH STARTS
TH0 ROB: 4 LSQ: 4 IQ: 0 IPC: 0.0002
TH1 ROB: 105 LSQ: 87 IQ: 96, IPC: 2.1955
TH2 ROB: 4 LSQ: 3 IQ: 0, IPC: 0.0001
TH3 ROB: 4 LSQ: 2 IQ: 0, IPC: 0.0002
EPOCH ENDS
EPOCH STARTS
TH0 ROB: 4 LSQ: 4 IQ: 0 IPC: 0.0002
TH1 ROB: 105 LSQ: 86 IQ: 96, IPC: 2.1955
TH2 ROB: 4 LSQ: 3 IQ: 0, IPC: 0.0001
TH3 ROB: 4 LSQ: 2 IQ: 0, IPC: 0.0002
EPOCH ENDS
EPOCH STARTS
TH0 ROB: 4 LSQ: 4 IQ: 0 IPC: 0.0002
TH1 ROB: 105 LSQ: 86 IQ: 96, IPC: 2.1956
TH2 ROB: 4 LSQ: 3 IQ: 0, IPC: 0.0001
TH3 ROB: 4 LSQ: 2 IQ: 0, IPC: 0.0002
EPOCH ENDS
EPOCH STARTS
TH0 ROB: 4 LSQ: 4 IQ: 0 IPC: 0.0002
TH1 ROB: 105 LSQ: 86 IQ: 96, IPC: 2.1956
TH2 ROB: 4 LSQ: 3 IQ: 0, IPC: 0.0001
TH3 ROB: 4 LSQ: 2 IQ: 0, IPC: 0.0002
EPOCH ENDS
EPOCH STARTS
TH0 ROB: 4 LSQ: 4 IQ: 0 IPC: 0.0002
TH1 ROB: 105 LSQ: 87 IQ: 96, IPC: 2.1956
TH2 ROB: 4 LSQ: 3 IQ: 0, IPC: 0.0001
TH3 ROB: 4 LSQ: 2 IQ: 0, IPC: 0.0002
EPOCH ENDS
EPOCH STARTS
TH0 ROB: 4 LSQ: 4 IQ: 0 IPC: 0.0002
TH1 ROB: 105 LSQ: 88 IQ: 96, IPC: 2.1956
TH2 ROB: 4 LSQ: 3 IQ: 0, IPC: 0.0001
TH3 ROB: 4 LSQ: 2 IQ: 0, IPC: 0.0002
EPOCH ENDS
EPOCH STARTS
TH0 ROB: 4 LSQ: 4 IQ: 0 IPC: 0.0002
TH1 ROB: 104 LSQ: 85 IQ: 96, IPC: 2.1956
TH2 ROB: 4 LSQ: 3 IQ: 0, IPC: 0.0001
TH3 ROB: 4 LSQ: 2 IQ: 0, IPC: 0.0002
EPOCH ENDS
EPOCH STARTS
TH0 ROB: 4 LSQ: 4 IQ: 0 IPC: 0.0002
TH1 ROB: 104 LSQ: 85 IQ: 96, IPC: 2.1956
TH2 ROB: 4 LSQ: 3 IQ: 0, IPC: 0.0001
TH3 ROB: 4 LSQ: 2 IQ: 0, IPC: 0.0002
EPOCH ENDS
EPOCH STARTS
TH0 ROB: 4 LSQ: 4 IQ: 0 IPC: 0.0002
TH1 ROB: 105 LSQ: 86 IQ: 96, IPC: 2.1956
TH2 ROB: 4 LSQ: 3 IQ: 0, IPC: 0.0001
TH3 ROB: 4 LSQ: 2 IQ: 0, IPC: 0.0002
EPOCH ENDS
EPOCH STARTS
TH0 ROB: 4 LSQ: 4 IQ: 0 IPC: 0.0002
TH1 ROB: 105 LSQ: 87 IQ: 96, IPC: 2.1957
TH2 ROB: 4 LSQ: 3 IQ: 0, IPC: 0.0001
TH3 ROB: 4 LSQ: 2 IQ: 0, IPC: 0.0002
EPOCH ENDS
EPOCH STARTS
TH0 ROB: 4 LSQ: 4 IQ: 0 IPC: 0.0002
TH1 ROB: 106 LSQ: 87 IQ: 96, IPC: 2.1957
TH2 ROB: 4 LSQ: 3 IQ: 0, IPC: 0.0001
TH3 ROB: 4 LSQ: 2 IQ: 0, IPC: 0.0002
EPOCH ENDS
EPOCH STARTS
TH0 ROB: 4 LSQ: 4 IQ: 0 IPC: 0.0002
TH1 ROB: 104 LSQ: 85 IQ: 96, IPC: 2.1957
TH2 ROB: 4 LSQ: 3 IQ: 0, IPC: 0.0001
TH3 ROB: 4 LSQ: 2 IQ: 0, IPC: 0.0002
EPOCH ENDS
EPOCH STARTS
TH0 ROB: 4 LSQ: 4 IQ: 0 IPC: 0.0002
TH1 ROB: 104 LSQ: 85 IQ: 96, IPC: 2.1957
TH2 ROB: 4 LSQ: 3 IQ: 0, IPC: 0.0001
TH3 ROB: 4 LSQ: 2 IQ: 0, IPC: 0.0002
EPOCH ENDS
EPOCH STARTS
TH0 ROB: 4 LSQ: 4 IQ: 0 IPC: 0.0002
TH1 ROB: 104 LSQ: 85 IQ: 96, IPC: 2.1957
TH2 ROB: 4 LSQ: 3 IQ: 0, IPC: 0.0001
TH3 ROB: 4 LSQ: 2 IQ: 0, IPC: 0.0001
EPOCH ENDS
EPOCH STARTS
TH0 ROB: 4 LSQ: 4 IQ: 0 IPC: 0.0001
TH1 ROB: 105 LSQ: 87 IQ: 96, IPC: 2.1957
TH2 ROB: 4 LSQ: 3 IQ: 0, IPC: 0.0001
TH3 ROB: 4 LSQ: 2 IQ: 0, IPC: 0.0001
EPOCH ENDS
EPOCH STARTS
TH0 ROB: 4 LSQ: 4 IQ: 0 IPC: 0.0001
TH1 ROB: 105 LSQ: 86 IQ: 96, IPC: 2.1957
TH2 ROB: 4 LSQ: 3 IQ: 0, IPC: 0.0001
TH3 ROB: 4 LSQ: 2 IQ: 0, IPC: 0.0001
EPOCH ENDS
EPOCH STARTS
TH0 ROB: 4 LSQ: 4 IQ: 0 IPC: 0.0001
TH1 ROB: 104 LSQ: 85 IQ: 96, IPC: 2.1957
TH2 ROB: 4 LSQ: 3 IQ: 0, IPC: 0.0001
TH3 ROB: 4 LSQ: 2 IQ: 0, IPC: 0.0001
EPOCH ENDS
EPOCH STARTS
TH0 ROB: 4 LSQ: 4 IQ: 0 IPC: 0.0001
TH1 ROB: 104 LSQ: 85 IQ: 96, IPC: 2.1957
TH2 ROB: 4 LSQ: 3 IQ: 0, IPC: 0.0001
TH3 ROB: 4 LSQ: 2 IQ: 0, IPC: 0.0001
EPOCH ENDS
EPOCH STARTS
TH0 ROB: 4 LSQ: 4 IQ: 0 IPC: 0.0001
TH1 ROB: 104 LSQ: 87 IQ: 96, IPC: 2.1957
TH2 ROB: 4 LSQ: 3 IQ: 0, IPC: 0.0001
TH3 ROB: 4 LSQ: 2 IQ: 0, IPC: 0.0001
EPOCH ENDS
EPOCH STARTS
TH0 ROB: 4 LSQ: 4 IQ: 0 IPC: 0.0001
TH1 ROB: 105 LSQ: 87 IQ: 96, IPC: 2.1957
TH2 ROB: 4 LSQ: 3 IQ: 0, IPC: 0.0001
TH3 ROB: 4 LSQ: 2 IQ: 0, IPC: 0.0001
EPOCH ENDS
EPOCH STARTS
TH0 ROB: 4 LSQ: 4 IQ: 0 IPC: 0.0001
TH1 ROB: 105 LSQ: 85 IQ: 96, IPC: 2.1958
TH2 ROB: 4 LSQ: 3 IQ: 0, IPC: 0.0001
TH3 ROB: 4 LSQ: 2 IQ: 0, IPC: 0.0001
EPOCH ENDS
EPOCH STARTS
TH0 ROB: 4 LSQ: 4 IQ: 0 IPC: 0.0001
TH1 ROB: 104 LSQ: 85 IQ: 96, IPC: 2.1958
TH2 ROB: 4 LSQ: 3 IQ: 0, IPC: 0.0001
TH3 ROB: 4 LSQ: 2 IQ: 0, IPC: 0.0001
EPOCH ENDS
EPOCH STARTS
TH0 ROB: 4 LSQ: 4 IQ: 0 IPC: 0.0001
TH1 ROB: 104 LSQ: 85 IQ: 96, IPC: 2.1958
TH2 ROB: 4 LSQ: 3 IQ: 0, IPC: 0.0001
TH3 ROB: 4 LSQ: 2 IQ: 0, IPC: 0.0001
EPOCH ENDS
EPOCH STARTS
TH0 ROB: 4 LSQ: 4 IQ: 0 IPC: 0.0001
TH1 ROB: 104 LSQ: 86 IQ: 96, IPC: 2.1958
TH2 ROB: 4 LSQ: 3 IQ: 0, IPC: 0.0001
TH3 ROB: 4 LSQ: 2 IQ: 0, IPC: 0.0001
EPOCH ENDS
EPOCH STARTS
TH0 ROB: 4 LSQ: 4 IQ: 0 IPC: 0.0001
TH1 ROB: 107 LSQ: 88 IQ: 96, IPC: 2.1958
TH2 ROB: 4 LSQ: 3 IQ: 0, IPC: 0.0001
TH3 ROB: 4 LSQ: 2 IQ: 0, IPC: 0.0001
EPOCH ENDS
EPOCH STARTS
TH0 ROB: 4 LSQ: 4 IQ: 0 IPC: 0.0001
TH1 ROB: 105 LSQ: 86 IQ: 96, IPC: 2.1958
TH2 ROB: 4 LSQ: 3 IQ: 0, IPC: 0.0001
TH3 ROB: 4 LSQ: 2 IQ: 0, IPC: 0.0001
EPOCH ENDS
EPOCH STARTS
TH0 ROB: 4 LSQ: 4 IQ: 0 IPC: 0.0001
TH1 ROB: 105 LSQ: 85 IQ: 96, IPC: 2.1958
TH2 ROB: 4 LSQ: 3 IQ: 0, IPC: 0.0001
TH3 ROB: 4 LSQ: 2 IQ: 0, IPC: 0.0001
EPOCH ENDS
EPOCH STARTS
TH0 ROB: 4 LSQ: 4 IQ: 0 IPC: 0.0001
TH1 ROB: 104 LSQ: 85 IQ: 96, IPC: 2.1958
TH2 ROB: 4 LSQ: 3 IQ: 0, IPC: 0.0001
TH3 ROB: 4 LSQ: 2 IQ: 0, IPC: 0.0001
EPOCH ENDS
EPOCH STARTS
TH0 ROB: 4 LSQ: 4 IQ: 0 IPC: 0.0001
TH1 ROB: 105 LSQ: 87 IQ: 96, IPC: 2.1958
TH2 ROB: 4 LSQ: 3 IQ: 0, IPC: 0.0001
TH3 ROB: 4 LSQ: 2 IQ: 0, IPC: 0.0001
EPOCH ENDS
EPOCH STARTS
TH0 ROB: 4 LSQ: 4 IQ: 0 IPC: 0.0001
TH1 ROB: 105 LSQ: 86 IQ: 96, IPC: 2.1958
TH2 ROB: 4 LSQ: 3 IQ: 0, IPC: 0.0001
TH3 ROB: 4 LSQ: 2 IQ: 0, IPC: 0.0001
EPOCH ENDS
EPOCH STARTS
TH0 ROB: 4 LSQ: 4 IQ: 0 IPC: 0.0001
TH1 ROB: 104 LSQ: 85 IQ: 96, IPC: 2.1958
TH2 ROB: 4 LSQ: 3 IQ: 0, IPC: 0.0001
TH3 ROB: 4 LSQ: 2 IQ: 0, IPC: 0.0001
EPOCH ENDS
EPOCH STARTS
TH0 ROB: 4 LSQ: 4 IQ: 0 IPC: 0.0001
TH1 ROB: 105 LSQ: 86 IQ: 96, IPC: 2.1958
TH2 ROB: 4 LSQ: 3 IQ: 0, IPC: 0.0001
TH3 ROB: 4 LSQ: 2 IQ: 0, IPC: 0.0001
EPOCH ENDS
EPOCH STARTS
TH0 ROB: 4 LSQ: 4 IQ: 0 IPC: 0.0001
TH1 ROB: 105 LSQ: 87 IQ: 96, IPC: 2.1958
TH2 ROB: 4 LSQ: 3 IQ: 0, IPC: 0.0001
TH3 ROB: 4 LSQ: 2 IQ: 0, IPC: 0.0001
EPOCH ENDS
EPOCH STARTS
TH0 ROB: 4 LSQ: 4 IQ: 0 IPC: 0.0001
TH1 ROB: 105 LSQ: 87 IQ: 96, IPC: 2.1958
TH2 ROB: 4 LSQ: 3 IQ: 0, IPC: 0.0001
TH3 ROB: 4 LSQ: 2 IQ: 0, IPC: 0.0001
EPOCH ENDS
EPOCH STARTS
TH0 ROB: 4 LSQ: 4 IQ: 0 IPC: 0.0001
TH1 ROB: 106 LSQ: 87 IQ: 96, IPC: 2.1958
TH2 ROB: 4 LSQ: 3 IQ: 0, IPC: 0.0001
TH3 ROB: 4 LSQ: 2 IQ: 0, IPC: 0.0001
EPOCH ENDS
EPOCH STARTS
TH0 ROB: 4 LSQ: 4 IQ: 0 IPC: 0.0001
TH1 ROB: 104 LSQ: 85 IQ: 96, IPC: 2.1958
TH2 ROB: 4 LSQ: 3 IQ: 0, IPC: 0.0001
TH3 ROB: 4 LSQ: 2 IQ: 0, IPC: 0.0001
EPOCH ENDS
EPOCH STARTS
TH0 ROB: 4 LSQ: 4 IQ: 0 IPC: 0.0001
TH1 ROB: 104 LSQ: 85 IQ: 96, IPC: 2.1958
TH2 ROB: 4 LSQ: 3 IQ: 0, IPC: 0.0001
TH3 ROB: 4 LSQ: 2 IQ: 0, IPC: 0.0001
EPOCH ENDS
EPOCH STARTS
TH0 ROB: 4 LSQ: 4 IQ: 0 IPC: 0.0001
TH1 ROB: 105 LSQ: 87 IQ: 96, IPC: 2.1958
TH2 ROB: 4 LSQ: 3 IQ: 0, IPC: 0.0001
TH3 ROB: 4 LSQ: 2 IQ: 0, IPC: 0.0001
EPOCH ENDS
EPOCH STARTS
TH0 ROB: 4 LSQ: 4 IQ: 0 IPC: 0.0001
TH1 ROB: 106 LSQ: 87 IQ: 96, IPC: 2.1958
TH2 ROB: 4 LSQ: 3 IQ: 0, IPC: 0.0001
TH3 ROB: 4 LSQ: 2 IQ: 0, IPC: 0.0001
EPOCH ENDS
EPOCH STARTS
TH0 ROB: 4 LSQ: 4 IQ: 0 IPC: 0.0001
TH1 ROB: 106 LSQ: 87 IQ: 96, IPC: 2.1958
TH2 ROB: 4 LSQ: 3 IQ: 0, IPC: 0.0001
TH3 ROB: 4 LSQ: 2 IQ: 0, IPC: 0.0001
EPOCH ENDS
EPOCH STARTS
TH0 ROB: 4 LSQ: 4 IQ: 0 IPC: 0.0001
TH1 ROB: 106 LSQ: 87 IQ: 96, IPC: 2.1958
TH2 ROB: 4 LSQ: 3 IQ: 0, IPC: 0.0001
TH3 ROB: 4 LSQ: 2 IQ: 0, IPC: 0.0001
EPOCH ENDS
EPOCH STARTS
TH0 ROB: 4 LSQ: 4 IQ: 0 IPC: 0.0001
TH1 ROB: 104 LSQ: 86 IQ: 96, IPC: 2.1958
TH2 ROB: 4 LSQ: 3 IQ: 0, IPC: 0.0001
TH3 ROB: 4 LSQ: 2 IQ: 0, IPC: 0.0001
EPOCH ENDS
EPOCH STARTS
TH0 ROB: 4 LSQ: 4 IQ: 0 IPC: 0.0001
TH1 ROB: 104 LSQ: 87 IQ: 96, IPC: 2.1959
TH2 ROB: 4 LSQ: 3 IQ: 0, IPC: 0.0001
TH3 ROB: 4 LSQ: 2 IQ: 0, IPC: 0.0001
EPOCH ENDS
EPOCH STARTS
TH0 ROB: 4 LSQ: 4 IQ: 0 IPC: 0.0001
TH1 ROB: 105 LSQ: 86 IQ: 96, IPC: 2.1959
TH2 ROB: 4 LSQ: 3 IQ: 0, IPC: 0.0001
TH3 ROB: 4 LSQ: 2 IQ: 0, IPC: 0.0001
EPOCH ENDS
EPOCH STARTS
TH0 ROB: 4 LSQ: 4 IQ: 0 IPC: 0.0001
TH1 ROB: 105 LSQ: 86 IQ: 96, IPC: 2.1959
TH2 ROB: 4 LSQ: 3 IQ: 0, IPC: 0.0001
TH3 ROB: 4 LSQ: 2 IQ: 0, IPC: 0.0001
EPOCH ENDS
EPOCH STARTS
TH0 ROB: 4 LSQ: 4 IQ: 0 IPC: 0.0001
TH1 ROB: 106 LSQ: 87 IQ: 96, IPC: 2.1959
TH2 ROB: 4 LSQ: 3 IQ: 0, IPC: 0.0001
TH3 ROB: 4 LSQ: 2 IQ: 0, IPC: 0.0001
EPOCH ENDS
EPOCH STARTS
TH0 ROB: 4 LSQ: 4 IQ: 0 IPC: 0.0001
TH1 ROB: 105 LSQ: 87 IQ: 96, IPC: 2.1959
TH2 ROB: 4 LSQ: 3 IQ: 0, IPC: 0.0001
TH3 ROB: 4 LSQ: 2 IQ: 0, IPC: 0.0001
EPOCH ENDS
EPOCH STARTS
TH0 ROB: 4 LSQ: 4 IQ: 0 IPC: 0.0001
TH1 ROB: 105 LSQ: 86 IQ: 96, IPC: 2.1959
TH2 ROB: 4 LSQ: 3 IQ: 0, IPC: 0.0001
TH3 ROB: 4 LSQ: 2 IQ: 0, IPC: 0.0001
EPOCH ENDS
EPOCH STARTS
TH0 ROB: 4 LSQ: 4 IQ: 0 IPC: 0.0001
TH1 ROB: 105 LSQ: 86 IQ: 96, IPC: 2.1959
TH2 ROB: 4 LSQ: 3 IQ: 0, IPC: 0.0000
TH3 ROB: 4 LSQ: 2 IQ: 0, IPC: 0.0001
EPOCH ENDS
EPOCH STARTS
TH0 ROB: 4 LSQ: 4 IQ: 0 IPC: 0.0001
TH1 ROB: 105 LSQ: 86 IQ: 96, IPC: 2.1959
TH2 ROB: 4 LSQ: 3 IQ: 0, IPC: 0.0000
TH3 ROB: 4 LSQ: 2 IQ: 0, IPC: 0.0001
EPOCH ENDS
EPOCH STARTS
TH0 ROB: 4 LSQ: 4 IQ: 0 IPC: 0.0001
TH1 ROB: 105 LSQ: 86 IQ: 96, IPC: 2.1959
TH2 ROB: 4 LSQ: 3 IQ: 0, IPC: 0.0000
TH3 ROB: 4 LSQ: 2 IQ: 0, IPC: 0.0001
EPOCH ENDS
EPOCH STARTS
TH0 ROB: 4 LSQ: 4 IQ: 0 IPC: 0.0001
TH1 ROB: 105 LSQ: 87 IQ: 96, IPC: 2.1959
TH2 ROB: 4 LSQ: 3 IQ: 0, IPC: 0.0000
TH3 ROB: 4 LSQ: 2 IQ: 0, IPC: 0.0001
EPOCH ENDS
EPOCH STARTS
TH0 ROB: 4 LSQ: 4 IQ: 0 IPC: 0.0001
TH1 ROB: 105 LSQ: 86 IQ: 96, IPC: 2.1959
TH2 ROB: 4 LSQ: 3 IQ: 0, IPC: 0.0000
TH3 ROB: 4 LSQ: 2 IQ: 0, IPC: 0.0001
EPOCH ENDS
EPOCH STARTS
TH0 ROB: 4 LSQ: 4 IQ: 0 IPC: 0.0001
TH1 ROB: 105 LSQ: 86 IQ: 96, IPC: 2.1959
TH2 ROB: 4 LSQ: 3 IQ: 0, IPC: 0.0000
TH3 ROB: 4 LSQ: 2 IQ: 0, IPC: 0.0001
EPOCH ENDS
EPOCH STARTS
TH0 ROB: 4 LSQ: 4 IQ: 0 IPC: 0.0001
TH1 ROB: 105 LSQ: 86 IQ: 96, IPC: 2.1959
TH2 ROB: 4 LSQ: 3 IQ: 0, IPC: 0.0000
TH3 ROB: 4 LSQ: 2 IQ: 0, IPC: 0.0001
EPOCH ENDS
EPOCH STARTS
TH0 ROB: 4 LSQ: 4 IQ: 0 IPC: 0.0001
TH1 ROB: 105 LSQ: 87 IQ: 96, IPC: 2.1959
TH2 ROB: 4 LSQ: 3 IQ: 0, IPC: 0.0000
TH3 ROB: 4 LSQ: 2 IQ: 0, IPC: 0.0001
EPOCH ENDS
EPOCH STARTS
TH0 ROB: 4 LSQ: 4 IQ: 0 IPC: 0.0001
TH1 ROB: 105 LSQ: 88 IQ: 96, IPC: 2.1959
TH2 ROB: 4 LSQ: 3 IQ: 0, IPC: 0.0000
TH3 ROB: 4 LSQ: 2 IQ: 0, IPC: 0.0001
EPOCH ENDS
EPOCH STARTS
TH0 ROB: 4 LSQ: 4 IQ: 0 IPC: 0.0001
TH1 ROB: 104 LSQ: 85 IQ: 96, IPC: 2.1959
TH2 ROB: 4 LSQ: 3 IQ: 0, IPC: 0.0000
TH3 ROB: 4 LSQ: 2 IQ: 0, IPC: 0.0001
EPOCH ENDS
EPOCH STARTS
TH0 ROB: 4 LSQ: 4 IQ: 0 IPC: 0.0001
TH1 ROB: 104 LSQ: 85 IQ: 96, IPC: 2.1959
TH2 ROB: 4 LSQ: 3 IQ: 0, IPC: 0.0000
TH3 ROB: 4 LSQ: 2 IQ: 0, IPC: 0.0001
EPOCH ENDS
EPOCH STARTS
TH0 ROB: 4 LSQ: 4 IQ: 0 IPC: 0.0001
TH1 ROB: 105 LSQ: 86 IQ: 96, IPC: 2.1959
TH2 ROB: 4 LSQ: 3 IQ: 0, IPC: 0.0000
TH3 ROB: 4 LSQ: 2 IQ: 0, IPC: 0.0001
EPOCH ENDS
EPOCH STARTS
TH0 ROB: 4 LSQ: 4 IQ: 0 IPC: 0.0001
TH1 ROB: 105 LSQ: 87 IQ: 96, IPC: 2.1959
TH2 ROB: 4 LSQ: 3 IQ: 0, IPC: 0.0000
TH3 ROB: 4 LSQ: 2 IQ: 0, IPC: 0.0001
EPOCH ENDS
EPOCH STARTS
TH0 ROB: 4 LSQ: 4 IQ: 0 IPC: 0.0001
TH1 ROB: 106 LSQ: 87 IQ: 96, IPC: 2.1959
TH2 ROB: 4 LSQ: 3 IQ: 0, IPC: 0.0000
TH3 ROB: 4 LSQ: 2 IQ: 0, IPC: 0.0001
EPOCH ENDS
EPOCH STARTS
TH0 ROB: 4 LSQ: 4 IQ: 0 IPC: 0.0001
TH1 ROB: 104 LSQ: 85 IQ: 96, IPC: 2.1959
TH2 ROB: 4 LSQ: 3 IQ: 0, IPC: 0.0000
TH3 ROB: 4 LSQ: 2 IQ: 0, IPC: 0.0001
EPOCH ENDS
EPOCH STARTS
TH0 ROB: 4 LSQ: 4 IQ: 0 IPC: 0.0001
TH1 ROB: 104 LSQ: 85 IQ: 96, IPC: 2.1959
TH2 ROB: 4 LSQ: 3 IQ: 0, IPC: 0.0000
TH3 ROB: 4 LSQ: 2 IQ: 0, IPC: 0.0001
EPOCH ENDS
EPOCH STARTS
TH0 ROB: 4 LSQ: 4 IQ: 0 IPC: 0.0001
TH1 ROB: 104 LSQ: 85 IQ: 96, IPC: 2.1959
TH2 ROB: 4 LSQ: 3 IQ: 0, IPC: 0.0000
TH3 ROB: 4 LSQ: 2 IQ: 0, IPC: 0.0001
EPOCH ENDS
EPOCH STARTS
TH0 ROB: 4 LSQ: 4 IQ: 0 IPC: 0.0001
TH1 ROB: 105 LSQ: 87 IQ: 96, IPC: 2.1959
TH2 ROB: 4 LSQ: 3 IQ: 0, IPC: 0.0000
TH3 ROB: 4 LSQ: 2 IQ: 0, IPC: 0.0001
EPOCH ENDS
EPOCH STARTS
TH0 ROB: 4 LSQ: 4 IQ: 0 IPC: 0.0001
TH1 ROB: 105 LSQ: 86 IQ: 96, IPC: 2.1959
TH2 ROB: 4 LSQ: 3 IQ: 0, IPC: 0.0000
TH3 ROB: 4 LSQ: 2 IQ: 0, IPC: 0.0001
EPOCH ENDS
EPOCH STARTS
TH0 ROB: 4 LSQ: 4 IQ: 0 IPC: 0.0001
TH1 ROB: 104 LSQ: 85 IQ: 96, IPC: 2.1959
TH2 ROB: 4 LSQ: 3 IQ: 0, IPC: 0.0000
TH3 ROB: 4 LSQ: 2 IQ: 0, IPC: 0.0001
EPOCH ENDS
EPOCH STARTS
TH0 ROB: 4 LSQ: 4 IQ: 0 IPC: 0.0001
TH1 ROB: 104 LSQ: 85 IQ: 96, IPC: 2.1959
TH2 ROB: 4 LSQ: 3 IQ: 0, IPC: 0.0000
TH3 ROB: 4 LSQ: 2 IQ: 0, IPC: 0.0001
EPOCH ENDS
EPOCH STARTS
TH0 ROB: 4 LSQ: 4 IQ: 0 IPC: 0.0001
TH1 ROB: 104 LSQ: 87 IQ: 96, IPC: 2.1959
TH2 ROB: 4 LSQ: 3 IQ: 0, IPC: 0.0000
TH3 ROB: 4 LSQ: 2 IQ: 0, IPC: 0.0001
EPOCH ENDS
EPOCH STARTS
TH0 ROB: 4 LSQ: 4 IQ: 0 IPC: 0.0001
TH1 ROB: 105 LSQ: 87 IQ: 96, IPC: 2.1959
TH2 ROB: 4 LSQ: 3 IQ: 0, IPC: 0.0000
TH3 ROB: 4 LSQ: 2 IQ: 0, IPC: 0.0001
EPOCH ENDS
EPOCH STARTS
TH0 ROB: 4 LSQ: 4 IQ: 0 IPC: 0.0001
TH1 ROB: 105 LSQ: 85 IQ: 96, IPC: 2.1959
TH2 ROB: 4 LSQ: 3 IQ: 0, IPC: 0.0000
TH3 ROB: 4 LSQ: 2 IQ: 0, IPC: 0.0001
EPOCH ENDS
EPOCH STARTS
TH0 ROB: 4 LSQ: 4 IQ: 0 IPC: 0.0001
TH1 ROB: 104 LSQ: 85 IQ: 96, IPC: 2.1959
TH2 ROB: 4 LSQ: 3 IQ: 0, IPC: 0.0000
TH3 ROB: 4 LSQ: 2 IQ: 0, IPC: 0.0001
EPOCH ENDS
EPOCH STARTS
TH0 ROB: 4 LSQ: 4 IQ: 0 IPC: 0.0001
TH1 ROB: 104 LSQ: 85 IQ: 96, IPC: 2.1959
TH2 ROB: 4 LSQ: 3 IQ: 0, IPC: 0.0000
TH3 ROB: 4 LSQ: 2 IQ: 0, IPC: 0.0001
EPOCH ENDS
EPOCH STARTS
TH0 ROB: 4 LSQ: 4 IQ: 0 IPC: 0.0001
TH1 ROB: 104 LSQ: 86 IQ: 96, IPC: 2.1959
TH2 ROB: 4 LSQ: 3 IQ: 0, IPC: 0.0000
TH3 ROB: 4 LSQ: 2 IQ: 0, IPC: 0.0001
EPOCH ENDS
EPOCH STARTS
TH0 ROB: 4 LSQ: 4 IQ: 0 IPC: 0.0001
TH1 ROB: 107 LSQ: 88 IQ: 96, IPC: 2.1959
TH2 ROB: 4 LSQ: 3 IQ: 0, IPC: 0.0000
TH3 ROB: 4 LSQ: 2 IQ: 0, IPC: 0.0001
EPOCH ENDS
EPOCH STARTS
TH0 ROB: 4 LSQ: 4 IQ: 0 IPC: 0.0001
TH1 ROB: 105 LSQ: 86 IQ: 96, IPC: 2.1959
TH2 ROB: 4 LSQ: 3 IQ: 0, IPC: 0.0000
TH3 ROB: 4 LSQ: 2 IQ: 0, IPC: 0.0001
EPOCH ENDS
EPOCH STARTS
TH0 ROB: 4 LSQ: 4 IQ: 0 IPC: 0.0001
TH1 ROB: 105 LSQ: 85 IQ: 96, IPC: 2.1959
TH2 ROB: 4 LSQ: 3 IQ: 0, IPC: 0.0000
TH3 ROB: 4 LSQ: 2 IQ: 0, IPC: 0.0001
EPOCH ENDS
EPOCH STARTS
TH0 ROB: 4 LSQ: 4 IQ: 0 IPC: 0.0001
TH1 ROB: 104 LSQ: 85 IQ: 96, IPC: 2.1959
TH2 ROB: 4 LSQ: 3 IQ: 0, IPC: 0.0000
TH3 ROB: 4 LSQ: 2 IQ: 0, IPC: 0.0001
EPOCH ENDS
EPOCH STARTS
TH0 ROB: 4 LSQ: 4 IQ: 0 IPC: 0.0001
TH1 ROB: 105 LSQ: 87 IQ: 96, IPC: 2.1959
TH2 ROB: 4 LSQ: 3 IQ: 0, IPC: 0.0000
TH3 ROB: 4 LSQ: 2 IQ: 0, IPC: 0.0001
EPOCH ENDS
EPOCH STARTS
TH0 ROB: 4 LSQ: 4 IQ: 0 IPC: 0.0001
TH1 ROB: 105 LSQ: 86 IQ: 96, IPC: 2.1959
TH2 ROB: 4 LSQ: 3 IQ: 0, IPC: 0.0000
TH3 ROB: 4 LSQ: 2 IQ: 0, IPC: 0.0001
EPOCH ENDS
EPOCH STARTS
TH0 ROB: 4 LSQ: 4 IQ: 0 IPC: 0.0001
TH1 ROB: 104 LSQ: 85 IQ: 96, IPC: 2.1959
TH2 ROB: 4 LSQ: 3 IQ: 0, IPC: 0.0000
TH3 ROB: 4 LSQ: 2 IQ: 0, IPC: 0.0001
EPOCH ENDS
EPOCH STARTS
TH0 ROB: 4 LSQ: 4 IQ: 0 IPC: 0.0001
TH1 ROB: 105 LSQ: 86 IQ: 96, IPC: 2.1959
TH2 ROB: 4 LSQ: 3 IQ: 0, IPC: 0.0000
TH3 ROB: 4 LSQ: 2 IQ: 0, IPC: 0.0001
EPOCH ENDS
EPOCH STARTS
TH0 ROB: 4 LSQ: 4 IQ: 0 IPC: 0.0001
TH1 ROB: 105 LSQ: 87 IQ: 96, IPC: 2.1959
TH2 ROB: 4 LSQ: 3 IQ: 0, IPC: 0.0000
TH3 ROB: 4 LSQ: 2 IQ: 0, IPC: 0.0001
EPOCH ENDS
EPOCH STARTS
TH0 ROB: 4 LSQ: 4 IQ: 0 IPC: 0.0001
TH1 ROB: 105 LSQ: 87 IQ: 96, IPC: 2.1959
TH2 ROB: 4 LSQ: 3 IQ: 0, IPC: 0.0000
TH3 ROB: 4 LSQ: 2 IQ: 0, IPC: 0.0001
EPOCH ENDS
EPOCH STARTS
TH0 ROB: 4 LSQ: 4 IQ: 0 IPC: 0.0001
TH1 ROB: 106 LSQ: 87 IQ: 96, IPC: 2.1959
TH2 ROB: 4 LSQ: 3 IQ: 0, IPC: 0.0000
TH3 ROB: 4 LSQ: 2 IQ: 0, IPC: 0.0001
EPOCH ENDS
EPOCH STARTS
TH0 ROB: 4 LSQ: 4 IQ: 0 IPC: 0.0001
TH1 ROB: 104 LSQ: 85 IQ: 96, IPC: 2.1959
TH2 ROB: 4 LSQ: 3 IQ: 0, IPC: 0.0000
TH3 ROB: 4 LSQ: 2 IQ: 0, IPC: 0.0001
EPOCH ENDS
EPOCH STARTS
TH0 ROB: 4 LSQ: 4 IQ: 0 IPC: 0.0001
TH1 ROB: 104 LSQ: 85 IQ: 96, IPC: 2.1959
TH2 ROB: 4 LSQ: 3 IQ: 0, IPC: 0.0000
TH3 ROB: 4 LSQ: 2 IQ: 0, IPC: 0.0001
EPOCH ENDS
EPOCH STARTS
TH0 ROB: 4 LSQ: 4 IQ: 0 IPC: 0.0001
TH1 ROB: 105 LSQ: 87 IQ: 96, IPC: 2.1959
TH2 ROB: 4 LSQ: 3 IQ: 0, IPC: 0.0000
TH3 ROB: 4 LSQ: 2 IQ: 0, IPC: 0.0001
EPOCH ENDS
EPOCH STARTS
TH0 ROB: 4 LSQ: 4 IQ: 0 IPC: 0.0001
TH1 ROB: 106 LSQ: 87 IQ: 96, IPC: 2.1959
TH2 ROB: 4 LSQ: 3 IQ: 0, IPC: 0.0000
TH3 ROB: 4 LSQ: 2 IQ: 0, IPC: 0.0001
EPOCH ENDS
EPOCH STARTS
TH0 ROB: 4 LSQ: 4 IQ: 0 IPC: 0.0001
TH1 ROB: 106 LSQ: 87 IQ: 96, IPC: 2.1959
TH2 ROB: 4 LSQ: 3 IQ: 0, IPC: 0.0000
TH3 ROB: 4 LSQ: 2 IQ: 0, IPC: 0.0001
EPOCH ENDS
EPOCH STARTS
TH0 ROB: 4 LSQ: 4 IQ: 0 IPC: 0.0001
TH1 ROB: 106 LSQ: 87 IQ: 96, IPC: 2.1959
TH2 ROB: 4 LSQ: 3 IQ: 0, IPC: 0.0000
TH3 ROB: 4 LSQ: 2 IQ: 0, IPC: 0.0001
EPOCH ENDS
EPOCH STARTS
TH0 ROB: 4 LSQ: 4 IQ: 0 IPC: 0.0001
TH1 ROB: 104 LSQ: 86 IQ: 96, IPC: 2.1959
TH2 ROB: 4 LSQ: 3 IQ: 0, IPC: 0.0000
TH3 ROB: 4 LSQ: 2 IQ: 0, IPC: 0.0001
EPOCH ENDS
EPOCH STARTS
TH0 ROB: 4 LSQ: 4 IQ: 0 IPC: 0.0001
TH1 ROB: 104 LSQ: 87 IQ: 96, IPC: 2.1959
TH2 ROB: 4 LSQ: 3 IQ: 0, IPC: 0.0000
TH3 ROB: 4 LSQ: 2 IQ: 0, IPC: 0.0001
EPOCH ENDS
EPOCH STARTS
TH0 ROB: 4 LSQ: 4 IQ: 0 IPC: 0.0001
TH1 ROB: 105 LSQ: 86 IQ: 96, IPC: 2.1959
TH2 ROB: 4 LSQ: 3 IQ: 0, IPC: 0.0000
TH3 ROB: 4 LSQ: 2 IQ: 0, IPC: 0.0001
EPOCH ENDS
EPOCH STARTS
TH0 ROB: 4 LSQ: 4 IQ: 0 IPC: 0.0001
TH1 ROB: 105 LSQ: 86 IQ: 96, IPC: 2.1959
TH2 ROB: 4 LSQ: 3 IQ: 0, IPC: 0.0000
TH3 ROB: 4 LSQ: 2 IQ: 0, IPC: 0.0001
EPOCH ENDS
EPOCH STARTS
TH0 ROB: 4 LSQ: 4 IQ: 0 IPC: 0.0001
TH1 ROB: 106 LSQ: 87 IQ: 96, IPC: 2.1959
TH2 ROB: 4 LSQ: 3 IQ: 0, IPC: 0.0000
TH3 ROB: 4 LSQ: 2 IQ: 0, IPC: 0.0001
EPOCH ENDS
EPOCH STARTS
TH0 ROB: 4 LSQ: 4 IQ: 0 IPC: 0.0001
TH1 ROB: 105 LSQ: 87 IQ: 96, IPC: 2.1959
TH2 ROB: 4 LSQ: 3 IQ: 0, IPC: 0.0000
TH3 ROB: 4 LSQ: 2 IQ: 0, IPC: 0.0001
EPOCH ENDS
EPOCH STARTS
TH0 ROB: 4 LSQ: 4 IQ: 0 IPC: 0.0001
TH1 ROB: 105 LSQ: 86 IQ: 96, IPC: 2.1960
TH2 ROB: 4 LSQ: 3 IQ: 0, IPC: 0.0000
TH3 ROB: 4 LSQ: 2 IQ: 0, IPC: 0.0001
EPOCH ENDS
EPOCH STARTS
TH0 ROB: 4 LSQ: 4 IQ: 0 IPC: 0.0001
TH1 ROB: 105 LSQ: 86 IQ: 96, IPC: 2.1960
TH2 ROB: 4 LSQ: 3 IQ: 0, IPC: 0.0000
TH3 ROB: 4 LSQ: 2 IQ: 0, IPC: 0.0000
EPOCH ENDS
EPOCH STARTS
TH0 ROB: 4 LSQ: 4 IQ: 0 IPC: 0.0001
TH1 ROB: 105 LSQ: 86 IQ: 96, IPC: 2.1960
TH2 ROB: 4 LSQ: 3 IQ: 0, IPC: 0.0000
TH3 ROB: 4 LSQ: 2 IQ: 0, IPC: 0.0000
EPOCH ENDS
EPOCH STARTS
TH0 ROB: 4 LSQ: 4 IQ: 0 IPC: 0.0001
TH1 ROB: 105 LSQ: 86 IQ: 96, IPC: 2.1960
TH2 ROB: 4 LSQ: 3 IQ: 0, IPC: 0.0000
TH3 ROB: 4 LSQ: 2 IQ: 0, IPC: 0.0000
EPOCH ENDS
EPOCH STARTS
TH0 ROB: 4 LSQ: 4 IQ: 0 IPC: 0.0000
TH1 ROB: 105 LSQ: 87 IQ: 96, IPC: 2.1960
TH2 ROB: 4 LSQ: 3 IQ: 0, IPC: 0.0000
TH3 ROB: 4 LSQ: 2 IQ: 0, IPC: 0.0000
EPOCH ENDS
EPOCH STARTS
TH0 ROB: 4 LSQ: 4 IQ: 0 IPC: 0.0000
TH1 ROB: 105 LSQ: 86 IQ: 96, IPC: 2.1960
TH2 ROB: 4 LSQ: 3 IQ: 0, IPC: 0.0000
TH3 ROB: 4 LSQ: 2 IQ: 0, IPC: 0.0000
EPOCH ENDS
EPOCH STARTS
TH0 ROB: 4 LSQ: 4 IQ: 0 IPC: 0.0000
TH1 ROB: 105 LSQ: 86 IQ: 96, IPC: 2.1960
TH2 ROB: 4 LSQ: 3 IQ: 0, IPC: 0.0000
TH3 ROB: 4 LSQ: 2 IQ: 0, IPC: 0.0000
EPOCH ENDS
EPOCH STARTS
TH0 ROB: 4 LSQ: 4 IQ: 0 IPC: 0.0000
TH1 ROB: 105 LSQ: 86 IQ: 96, IPC: 2.1960
TH2 ROB: 4 LSQ: 3 IQ: 0, IPC: 0.0000
TH3 ROB: 4 LSQ: 2 IQ: 0, IPC: 0.0000
EPOCH ENDS
EPOCH STARTS
TH0 ROB: 4 LSQ: 4 IQ: 0 IPC: 0.0000
TH1 ROB: 105 LSQ: 87 IQ: 96, IPC: 2.1960
TH2 ROB: 4 LSQ: 3 IQ: 0, IPC: 0.0000
TH3 ROB: 4 LSQ: 2 IQ: 0, IPC: 0.0000
EPOCH ENDS
EPOCH STARTS
TH0 ROB: 4 LSQ: 4 IQ: 0 IPC: 0.0000
TH1 ROB: 105 LSQ: 88 IQ: 96, IPC: 2.1960
TH2 ROB: 4 LSQ: 3 IQ: 0, IPC: 0.0000
TH3 ROB: 4 LSQ: 2 IQ: 0, IPC: 0.0000
EPOCH ENDS
EPOCH STARTS
TH0 ROB: 4 LSQ: 4 IQ: 0 IPC: 0.0000
TH1 ROB: 104 LSQ: 85 IQ: 96, IPC: 2.1960
TH2 ROB: 4 LSQ: 3 IQ: 0, IPC: 0.0000
TH3 ROB: 4 LSQ: 2 IQ: 0, IPC: 0.0000
EPOCH ENDS
EPOCH STARTS
TH0 ROB: 4 LSQ: 4 IQ: 0 IPC: 0.0000
TH1 ROB: 104 LSQ: 85 IQ: 96, IPC: 2.1960
TH2 ROB: 4 LSQ: 3 IQ: 0, IPC: 0.0000
TH3 ROB: 4 LSQ: 2 IQ: 0, IPC: 0.0000
EPOCH ENDS
EPOCH STARTS
TH0 ROB: 4 LSQ: 4 IQ: 0 IPC: 0.0000
TH1 ROB: 105 LSQ: 86 IQ: 96, IPC: 2.1960
TH2 ROB: 4 LSQ: 3 IQ: 0, IPC: 0.0000
TH3 ROB: 4 LSQ: 2 IQ: 0, IPC: 0.0000
EPOCH ENDS
EPOCH STARTS
TH0 ROB: 4 LSQ: 4 IQ: 0 IPC: 0.0000
TH1 ROB: 105 LSQ: 87 IQ: 96, IPC: 2.1960
TH2 ROB: 4 LSQ: 3 IQ: 0, IPC: 0.0000
TH3 ROB: 4 LSQ: 2 IQ: 0, IPC: 0.0000
EPOCH ENDS
EPOCH STARTS
TH0 ROB: 4 LSQ: 4 IQ: 0 IPC: 0.0000
TH1 ROB: 106 LSQ: 87 IQ: 96, IPC: 2.1960
TH2 ROB: 4 LSQ: 3 IQ: 0, IPC: 0.0000
TH3 ROB: 4 LSQ: 2 IQ: 0, IPC: 0.0000
EPOCH ENDS
EPOCH STARTS
TH0 ROB: 4 LSQ: 4 IQ: 0 IPC: 0.0000
TH1 ROB: 104 LSQ: 85 IQ: 96, IPC: 2.1960
TH2 ROB: 4 LSQ: 3 IQ: 0, IPC: 0.0000
TH3 ROB: 4 LSQ: 2 IQ: 0, IPC: 0.0000
EPOCH ENDS
EPOCH STARTS
TH0 ROB: 4 LSQ: 4 IQ: 0 IPC: 0.0000
TH1 ROB: 104 LSQ: 85 IQ: 96, IPC: 2.1960
TH2 ROB: 4 LSQ: 3 IQ: 0, IPC: 0.0000
TH3 ROB: 4 LSQ: 2 IQ: 0, IPC: 0.0000
EPOCH ENDS
EPOCH STARTS
TH0 ROB: 4 LSQ: 4 IQ: 0 IPC: 0.0000
TH1 ROB: 104 LSQ: 85 IQ: 96, IPC: 2.1960
TH2 ROB: 4 LSQ: 3 IQ: 0, IPC: 0.0000
TH3 ROB: 4 LSQ: 2 IQ: 0, IPC: 0.0000
EPOCH ENDS
EPOCH STARTS
TH0 ROB: 4 LSQ: 4 IQ: 0 IPC: 0.0000
TH1 ROB: 105 LSQ: 87 IQ: 96, IPC: 2.1960
TH2 ROB: 4 LSQ: 3 IQ: 0, IPC: 0.0000
TH3 ROB: 4 LSQ: 2 IQ: 0, IPC: 0.0000
EPOCH ENDS
EPOCH STARTS
TH0 ROB: 4 LSQ: 4 IQ: 0 IPC: 0.0000
TH1 ROB: 105 LSQ: 86 IQ: 96, IPC: 2.1960
TH2 ROB: 4 LSQ: 3 IQ: 0, IPC: 0.0000
TH3 ROB: 4 LSQ: 2 IQ: 0, IPC: 0.0000
EPOCH ENDS
EPOCH STARTS
TH0 ROB: 4 LSQ: 4 IQ: 0 IPC: 0.0000
TH1 ROB: 104 LSQ: 85 IQ: 96, IPC: 2.1960
TH2 ROB: 4 LSQ: 3 IQ: 0, IPC: 0.0000
TH3 ROB: 4 LSQ: 2 IQ: 0, IPC: 0.0000
EPOCH ENDS
EPOCH STARTS
TH0 ROB: 4 LSQ: 4 IQ: 0 IPC: 0.0000
TH1 ROB: 104 LSQ: 85 IQ: 96, IPC: 2.1960
TH2 ROB: 4 LSQ: 3 IQ: 0, IPC: 0.0000
TH3 ROB: 4 LSQ: 2 IQ: 0, IPC: 0.0000
EPOCH ENDS
EPOCH STARTS
TH0 ROB: 4 LSQ: 4 IQ: 0 IPC: 0.0000
TH1 ROB: 104 LSQ: 87 IQ: 96, IPC: 2.1960
TH2 ROB: 4 LSQ: 3 IQ: 0, IPC: 0.0000
TH3 ROB: 4 LSQ: 2 IQ: 0, IPC: 0.0000
EPOCH ENDS
EPOCH STARTS
TH0 ROB: 4 LSQ: 4 IQ: 0 IPC: 0.0000
TH1 ROB: 105 LSQ: 87 IQ: 96, IPC: 2.1960
TH2 ROB: 4 LSQ: 3 IQ: 0, IPC: 0.0000
TH3 ROB: 4 LSQ: 2 IQ: 0, IPC: 0.0000
EPOCH ENDS
EPOCH STARTS
TH0 ROB: 4 LSQ: 4 IQ: 0 IPC: 0.0000
TH1 ROB: 105 LSQ: 85 IQ: 96, IPC: 2.1960
TH2 ROB: 4 LSQ: 3 IQ: 0, IPC: 0.0000
TH3 ROB: 4 LSQ: 2 IQ: 0, IPC: 0.0000
EPOCH ENDS
EPOCH STARTS
TH0 ROB: 4 LSQ: 4 IQ: 0 IPC: 0.0000
TH1 ROB: 104 LSQ: 85 IQ: 96, IPC: 2.1960
TH2 ROB: 4 LSQ: 3 IQ: 0, IPC: 0.0000
TH3 ROB: 4 LSQ: 2 IQ: 0, IPC: 0.0000
EPOCH ENDS
EPOCH STARTS
TH0 ROB: 4 LSQ: 4 IQ: 0 IPC: 0.0000
TH1 ROB: 104 LSQ: 85 IQ: 96, IPC: 2.1960
TH2 ROB: 4 LSQ: 3 IQ: 0, IPC: 0.0000
TH3 ROB: 4 LSQ: 2 IQ: 0, IPC: 0.0000
EPOCH ENDS
EPOCH STARTS
TH0 ROB: 4 LSQ: 4 IQ: 0 IPC: 0.0000
TH1 ROB: 104 LSQ: 86 IQ: 96, IPC: 2.1960
TH2 ROB: 4 LSQ: 3 IQ: 0, IPC: 0.0000
TH3 ROB: 4 LSQ: 2 IQ: 0, IPC: 0.0000
EPOCH ENDS
EPOCH STARTS
TH0 ROB: 4 LSQ: 4 IQ: 0 IPC: 0.0000
TH1 ROB: 107 LSQ: 88 IQ: 96, IPC: 2.1960
TH2 ROB: 4 LSQ: 3 IQ: 0, IPC: 0.0000
TH3 ROB: 4 LSQ: 2 IQ: 0, IPC: 0.0000
EPOCH ENDS
EPOCH STARTS
TH0 ROB: 4 LSQ: 4 IQ: 0 IPC: 0.0000
TH1 ROB: 105 LSQ: 86 IQ: 96, IPC: 2.1960
TH2 ROB: 4 LSQ: 3 IQ: 0, IPC: 0.0000
TH3 ROB: 4 LSQ: 2 IQ: 0, IPC: 0.0000
EPOCH ENDS
EPOCH STARTS
TH0 ROB: 4 LSQ: 4 IQ: 0 IPC: 0.0000
TH1 ROB: 105 LSQ: 85 IQ: 96, IPC: 2.1960
TH2 ROB: 4 LSQ: 3 IQ: 0, IPC: 0.0000
TH3 ROB: 4 LSQ: 2 IQ: 0, IPC: 0.0000
EPOCH ENDS
EPOCH STARTS
TH0 ROB: 4 LSQ: 4 IQ: 0 IPC: 0.0000
TH1 ROB: 104 LSQ: 85 IQ: 96, IPC: 2.1960
TH2 ROB: 4 LSQ: 3 IQ: 0, IPC: 0.0000
TH3 ROB: 4 LSQ: 2 IQ: 0, IPC: 0.0000
EPOCH ENDS
EPOCH STARTS
TH0 ROB: 4 LSQ: 4 IQ: 0 IPC: 0.0000
TH1 ROB: 105 LSQ: 87 IQ: 96, IPC: 2.1960
TH2 ROB: 4 LSQ: 3 IQ: 0, IPC: 0.0000
TH3 ROB: 4 LSQ: 2 IQ: 0, IPC: 0.0000
EPOCH ENDS
EPOCH STARTS
TH0 ROB: 4 LSQ: 4 IQ: 0 IPC: 0.0000
TH1 ROB: 105 LSQ: 86 IQ: 96, IPC: 2.1960
TH2 ROB: 4 LSQ: 3 IQ: 0, IPC: 0.0000
TH3 ROB: 4 LSQ: 2 IQ: 0, IPC: 0.0000
EPOCH ENDS
EPOCH STARTS
TH0 ROB: 4 LSQ: 4 IQ: 0 IPC: 0.0000
TH1 ROB: 104 LSQ: 85 IQ: 96, IPC: 2.1960
TH2 ROB: 4 LSQ: 3 IQ: 0, IPC: 0.0000
TH3 ROB: 4 LSQ: 2 IQ: 0, IPC: 0.0000
EPOCH ENDS
EPOCH STARTS
TH0 ROB: 4 LSQ: 4 IQ: 0 IPC: 0.0000
TH1 ROB: 105 LSQ: 86 IQ: 96, IPC: 2.1960
TH2 ROB: 4 LSQ: 3 IQ: 0, IPC: 0.0000
TH3 ROB: 4 LSQ: 2 IQ: 0, IPC: 0.0000
EPOCH ENDS
EPOCH STARTS
TH0 ROB: 4 LSQ: 4 IQ: 0 IPC: 0.0000
TH1 ROB: 105 LSQ: 87 IQ: 96, IPC: 2.1960
TH2 ROB: 4 LSQ: 3 IQ: 0, IPC: 0.0000
TH3 ROB: 4 LSQ: 2 IQ: 0, IPC: 0.0000
EPOCH ENDS
EPOCH STARTS
TH0 ROB: 4 LSQ: 4 IQ: 0 IPC: 0.0000
TH1 ROB: 105 LSQ: 87 IQ: 96, IPC: 2.1960
TH2 ROB: 4 LSQ: 3 IQ: 0, IPC: 0.0000
TH3 ROB: 4 LSQ: 2 IQ: 0, IPC: 0.0000
EPOCH ENDS
EPOCH STARTS
TH0 ROB: 4 LSQ: 4 IQ: 0 IPC: 0.0000
TH1 ROB: 106 LSQ: 87 IQ: 96, IPC: 2.1960
TH2 ROB: 4 LSQ: 3 IQ: 0, IPC: 0.0000
TH3 ROB: 4 LSQ: 2 IQ: 0, IPC: 0.0000
EPOCH ENDS
EPOCH STARTS
TH0 ROB: 4 LSQ: 4 IQ: 0 IPC: 0.0000
TH1 ROB: 104 LSQ: 85 IQ: 96, IPC: 2.1960
TH2 ROB: 4 LSQ: 3 IQ: 0, IPC: 0.0000
TH3 ROB: 4 LSQ: 2 IQ: 0, IPC: 0.0000
EPOCH ENDS
EPOCH STARTS
TH0 ROB: 4 LSQ: 4 IQ: 0 IPC: 0.0000
TH1 ROB: 104 LSQ: 85 IQ: 96, IPC: 2.1960
TH2 ROB: 4 LSQ: 3 IQ: 0, IPC: 0.0000
TH3 ROB: 4 LSQ: 2 IQ: 0, IPC: 0.0000
EPOCH ENDS
EPOCH STARTS
TH0 ROB: 4 LSQ: 4 IQ: 0 IPC: 0.0000
TH1 ROB: 105 LSQ: 87 IQ: 96, IPC: 2.1960
TH2 ROB: 4 LSQ: 3 IQ: 0, IPC: 0.0000
TH3 ROB: 4 LSQ: 2 IQ: 0, IPC: 0.0000
EPOCH ENDS
EPOCH STARTS
TH0 ROB: 4 LSQ: 4 IQ: 0 IPC: 0.0000
TH1 ROB: 106 LSQ: 87 IQ: 96, IPC: 2.1960
TH2 ROB: 4 LSQ: 3 IQ: 0, IPC: 0.0000
TH3 ROB: 4 LSQ: 2 IQ: 0, IPC: 0.0000
EPOCH ENDS
EPOCH STARTS
TH0 ROB: 4 LSQ: 4 IQ: 0 IPC: 0.0000
TH1 ROB: 106 LSQ: 87 IQ: 96, IPC: 2.1960
TH2 ROB: 4 LSQ: 3 IQ: 0, IPC: 0.0000
TH3 ROB: 4 LSQ: 2 IQ: 0, IPC: 0.0000
EPOCH ENDS
EPOCH STARTS
TH0 ROB: 4 LSQ: 4 IQ: 0 IPC: 0.0000
TH1 ROB: 106 LSQ: 87 IQ: 96, IPC: 2.1960
TH2 ROB: 4 LSQ: 3 IQ: 0, IPC: 0.0000
TH3 ROB: 4 LSQ: 2 IQ: 0, IPC: 0.0000
EPOCH ENDS
EPOCH STARTS
TH0 ROB: 4 LSQ: 4 IQ: 0 IPC: 0.0000
TH1 ROB: 104 LSQ: 86 IQ: 96, IPC: 2.1960
TH2 ROB: 4 LSQ: 3 IQ: 0, IPC: 0.0000
TH3 ROB: 4 LSQ: 2 IQ: 0, IPC: 0.0000
EPOCH ENDS
EPOCH STARTS
TH0 ROB: 4 LSQ: 4 IQ: 0 IPC: 0.0000
TH1 ROB: 104 LSQ: 87 IQ: 96, IPC: 2.1960
TH2 ROB: 4 LSQ: 3 IQ: 0, IPC: 0.0000
TH3 ROB: 4 LSQ: 2 IQ: 0, IPC: 0.0000
EPOCH ENDS
EPOCH STARTS
TH0 ROB: 4 LSQ: 4 IQ: 0 IPC: 0.0000
TH1 ROB: 105 LSQ: 86 IQ: 96, IPC: 2.1960
TH2 ROB: 4 LSQ: 3 IQ: 0, IPC: 0.0000
TH3 ROB: 4 LSQ: 2 IQ: 0, IPC: 0.0000
EPOCH ENDS
EPOCH STARTS
TH0 ROB: 4 LSQ: 4 IQ: 0 IPC: 0.0000
TH1 ROB: 105 LSQ: 86 IQ: 96, IPC: 2.1960
TH2 ROB: 4 LSQ: 3 IQ: 0, IPC: 0.0000
TH3 ROB: 4 LSQ: 2 IQ: 0, IPC: 0.0000
EPOCH ENDS
EPOCH STARTS
TH0 ROB: 4 LSQ: 4 IQ: 0 IPC: 0.0000
TH1 ROB: 106 LSQ: 87 IQ: 96, IPC: 2.1960
TH2 ROB: 4 LSQ: 3 IQ: 0, IPC: 0.0000
TH3 ROB: 4 LSQ: 2 IQ: 0, IPC: 0.0000
EPOCH ENDS
EPOCH STARTS
TH0 ROB: 4 LSQ: 4 IQ: 0 IPC: 0.0000
TH1 ROB: 105 LSQ: 87 IQ: 96, IPC: 2.1960
TH2 ROB: 4 LSQ: 3 IQ: 0, IPC: 0.0000
TH3 ROB: 4 LSQ: 2 IQ: 0, IPC: 0.0000
EPOCH ENDS
EPOCH STARTS
TH0 ROB: 4 LSQ: 4 IQ: 0 IPC: 0.0000
TH1 ROB: 105 LSQ: 86 IQ: 96, IPC: 2.1960
TH2 ROB: 4 LSQ: 3 IQ: 0, IPC: 0.0000
TH3 ROB: 4 LSQ: 2 IQ: 0, IPC: 0.0000
EPOCH ENDS
EPOCH STARTS
TH0 ROB: 4 LSQ: 4 IQ: 0 IPC: 0.0000
TH1 ROB: 105 LSQ: 86 IQ: 96, IPC: 2.1960
TH2 ROB: 4 LSQ: 3 IQ: 0, IPC: 0.0000
TH3 ROB: 4 LSQ: 2 IQ: 0, IPC: 0.0000
EPOCH ENDS
EPOCH STARTS
TH0 ROB: 4 LSQ: 4 IQ: 0 IPC: 0.0000
TH1 ROB: 105 LSQ: 86 IQ: 96, IPC: 2.1960
TH2 ROB: 4 LSQ: 3 IQ: 0, IPC: 0.0000
TH3 ROB: 4 LSQ: 2 IQ: 0, IPC: 0.0000
EPOCH ENDS
EPOCH STARTS
TH0 ROB: 4 LSQ: 4 IQ: 0 IPC: 0.0000
TH1 ROB: 105 LSQ: 86 IQ: 96, IPC: 2.1960
TH2 ROB: 4 LSQ: 3 IQ: 0, IPC: 0.0000
TH3 ROB: 4 LSQ: 2 IQ: 0, IPC: 0.0000
EPOCH ENDS
EPOCH STARTS
TH0 ROB: 4 LSQ: 4 IQ: 0 IPC: 0.0000
TH1 ROB: 105 LSQ: 87 IQ: 96, IPC: 2.1960
TH2 ROB: 4 LSQ: 3 IQ: 0, IPC: 0.0000
TH3 ROB: 4 LSQ: 2 IQ: 0, IPC: 0.0000
EPOCH ENDS
EPOCH STARTS
TH0 ROB: 4 LSQ: 4 IQ: 0 IPC: 0.0000
TH1 ROB: 105 LSQ: 86 IQ: 96, IPC: 2.1960
TH2 ROB: 4 LSQ: 3 IQ: 0, IPC: 0.0000
TH3 ROB: 4 LSQ: 2 IQ: 0, IPC: 0.0000
EPOCH ENDS
EPOCH STARTS
TH0 ROB: 4 LSQ: 4 IQ: 0 IPC: 0.0000
TH1 ROB: 105 LSQ: 86 IQ: 96, IPC: 2.1960
TH2 ROB: 4 LSQ: 3 IQ: 0, IPC: 0.0000
TH3 ROB: 4 LSQ: 2 IQ: 0, IPC: 0.0000
EPOCH ENDS
EPOCH STARTS
TH0 ROB: 4 LSQ: 4 IQ: 0 IPC: 0.0000
TH1 ROB: 105 LSQ: 86 IQ: 96, IPC: 2.1960
TH2 ROB: 4 LSQ: 3 IQ: 0, IPC: 0.0000
TH3 ROB: 4 LSQ: 2 IQ: 0, IPC: 0.0000
EPOCH ENDS
EPOCH STARTS
TH0 ROB: 4 LSQ: 4 IQ: 0 IPC: 0.0000
TH1 ROB: 105 LSQ: 87 IQ: 96, IPC: 2.1960
TH2 ROB: 4 LSQ: 3 IQ: 0, IPC: 0.0000
TH3 ROB: 4 LSQ: 2 IQ: 0, IPC: 0.0000
EPOCH ENDS
EPOCH STARTS
TH0 ROB: 4 LSQ: 4 IQ: 0 IPC: 0.0000
TH1 ROB: 105 LSQ: 88 IQ: 96, IPC: 2.1960
TH2 ROB: 4 LSQ: 3 IQ: 0, IPC: 0.0000
TH3 ROB: 4 LSQ: 2 IQ: 0, IPC: 0.0000
EPOCH ENDS
EPOCH STARTS
TH0 ROB: 4 LSQ: 4 IQ: 0 IPC: 0.0000
TH1 ROB: 104 LSQ: 85 IQ: 96, IPC: 2.1960
TH2 ROB: 4 LSQ: 3 IQ: 0, IPC: 0.0000
TH3 ROB: 4 LSQ: 2 IQ: 0, IPC: 0.0000
EPOCH ENDS
EPOCH STARTS
TH0 ROB: 4 LSQ: 4 IQ: 0 IPC: 0.0000
TH1 ROB: 104 LSQ: 85 IQ: 96, IPC: 2.1960
TH2 ROB: 4 LSQ: 3 IQ: 0, IPC: 0.0000
TH3 ROB: 4 LSQ: 2 IQ: 0, IPC: 0.0000
EPOCH ENDS
EPOCH STARTS
TH0 ROB: 4 LSQ: 4 IQ: 0 IPC: 0.0000
TH1 ROB: 105 LSQ: 86 IQ: 96, IPC: 2.1960
TH2 ROB: 4 LSQ: 3 IQ: 0, IPC: 0.0000
TH3 ROB: 4 LSQ: 2 IQ: 0, IPC: 0.0000
EPOCH ENDS
EPOCH STARTS
TH0 ROB: 4 LSQ: 4 IQ: 0 IPC: 0.0000
TH1 ROB: 105 LSQ: 87 IQ: 96, IPC: 2.1960
TH2 ROB: 4 LSQ: 3 IQ: 0, IPC: 0.0000
TH3 ROB: 4 LSQ: 2 IQ: 0, IPC: 0.0000
EPOCH ENDS
EPOCH STARTS
TH0 ROB: 4 LSQ: 4 IQ: 0 IPC: 0.0000
TH1 ROB: 106 LSQ: 87 IQ: 96, IPC: 2.1960
TH2 ROB: 4 LSQ: 3 IQ: 0, IPC: 0.0000
TH3 ROB: 4 LSQ: 2 IQ: 0, IPC: 0.0000
EPOCH ENDS
EPOCH STARTS
TH0 ROB: 4 LSQ: 4 IQ: 0 IPC: 0.0000
TH1 ROB: 104 LSQ: 85 IQ: 96, IPC: 2.1960
TH2 ROB: 4 LSQ: 3 IQ: 0, IPC: 0.0000
TH3 ROB: 4 LSQ: 2 IQ: 0, IPC: 0.0000
EPOCH ENDS
EPOCH STARTS
TH0 ROB: 4 LSQ: 4 IQ: 0 IPC: 0.0000
TH1 ROB: 104 LSQ: 85 IQ: 96, IPC: 2.1960
TH2 ROB: 4 LSQ: 3 IQ: 0, IPC: 0.0000
TH3 ROB: 4 LSQ: 2 IQ: 0, IPC: 0.0000
EPOCH ENDS
EPOCH STARTS
TH0 ROB: 4 LSQ: 4 IQ: 0 IPC: 0.0000
TH1 ROB: 104 LSQ: 85 IQ: 96, IPC: 2.1960
TH2 ROB: 4 LSQ: 3 IQ: 0, IPC: 0.0000
TH3 ROB: 4 LSQ: 2 IQ: 0, IPC: 0.0000
EPOCH ENDS
EPOCH STARTS
TH0 ROB: 4 LSQ: 4 IQ: 0 IPC: 0.0000
TH1 ROB: 105 LSQ: 87 IQ: 96, IPC: 2.1960
TH2 ROB: 4 LSQ: 3 IQ: 0, IPC: 0.0000
TH3 ROB: 4 LSQ: 2 IQ: 0, IPC: 0.0000
EPOCH ENDS
EPOCH STARTS
TH0 ROB: 4 LSQ: 4 IQ: 0 IPC: 0.0000
TH1 ROB: 105 LSQ: 86 IQ: 96, IPC: 2.1960
TH2 ROB: 4 LSQ: 3 IQ: 0, IPC: 0.0000
TH3 ROB: 4 LSQ: 2 IQ: 0, IPC: 0.0000
EPOCH ENDS
EPOCH STARTS
TH0 ROB: 4 LSQ: 4 IQ: 0 IPC: 0.0000
TH1 ROB: 104 LSQ: 85 IQ: 96, IPC: 2.1960
TH2 ROB: 4 LSQ: 3 IQ: 0, IPC: 0.0000
TH3 ROB: 4 LSQ: 2 IQ: 0, IPC: 0.0000
EPOCH ENDS
EPOCH STARTS
TH0 ROB: 4 LSQ: 4 IQ: 0 IPC: 0.0000
TH1 ROB: 104 LSQ: 85 IQ: 96, IPC: 2.1960
TH2 ROB: 4 LSQ: 3 IQ: 0, IPC: 0.0000
TH3 ROB: 4 LSQ: 2 IQ: 0, IPC: 0.0000
EPOCH ENDS
EPOCH STARTS
TH0 ROB: 4 LSQ: 4 IQ: 0 IPC: 0.0000
TH1 ROB: 104 LSQ: 87 IQ: 96, IPC: 2.1960
TH2 ROB: 4 LSQ: 3 IQ: 0, IPC: 0.0000
TH3 ROB: 4 LSQ: 2 IQ: 0, IPC: 0.0000
EPOCH ENDS
EPOCH STARTS
TH0 ROB: 4 LSQ: 4 IQ: 0 IPC: 0.0000
TH1 ROB: 105 LSQ: 87 IQ: 96, IPC: 2.1960
TH2 ROB: 4 LSQ: 3 IQ: 0, IPC: 0.0000
TH3 ROB: 4 LSQ: 2 IQ: 0, IPC: 0.0000
EPOCH ENDS
EPOCH STARTS
TH0 ROB: 4 LSQ: 4 IQ: 0 IPC: 0.0000
TH1 ROB: 105 LSQ: 85 IQ: 96, IPC: 2.1960
TH2 ROB: 4 LSQ: 3 IQ: 0, IPC: 0.0000
TH3 ROB: 4 LSQ: 2 IQ: 0, IPC: 0.0000
EPOCH ENDS
EPOCH STARTS
TH0 ROB: 4 LSQ: 4 IQ: 0 IPC: 0.0000
TH1 ROB: 104 LSQ: 85 IQ: 96, IPC: 2.1960
TH2 ROB: 4 LSQ: 3 IQ: 0, IPC: 0.0000
TH3 ROB: 4 LSQ: 2 IQ: 0, IPC: 0.0000
EPOCH ENDS
EPOCH STARTS
TH0 ROB: 4 LSQ: 4 IQ: 0 IPC: 0.0000
TH1 ROB: 104 LSQ: 85 IQ: 96, IPC: 2.1960
TH2 ROB: 4 LSQ: 3 IQ: 0, IPC: 0.0000
TH3 ROB: 4 LSQ: 2 IQ: 0, IPC: 0.0000
EPOCH ENDS
EPOCH STARTS
TH0 ROB: 4 LSQ: 4 IQ: 0 IPC: 0.0000
TH1 ROB: 104 LSQ: 86 IQ: 96, IPC: 2.1960
TH2 ROB: 4 LSQ: 3 IQ: 0, IPC: 0.0000
TH3 ROB: 4 LSQ: 2 IQ: 0, IPC: 0.0000
EPOCH ENDS
EPOCH STARTS
TH0 ROB: 4 LSQ: 4 IQ: 0 IPC: 0.0000
TH1 ROB: 107 LSQ: 88 IQ: 96, IPC: 2.1960
TH2 ROB: 4 LSQ: 3 IQ: 0, IPC: 0.0000
TH3 ROB: 4 LSQ: 2 IQ: 0, IPC: 0.0000
EPOCH ENDS
EPOCH STARTS
TH0 ROB: 4 LSQ: 4 IQ: 0 IPC: 0.0000
TH1 ROB: 105 LSQ: 86 IQ: 96, IPC: 2.1960
TH2 ROB: 4 LSQ: 3 IQ: 0, IPC: 0.0000
TH3 ROB: 4 LSQ: 2 IQ: 0, IPC: 0.0000
EPOCH ENDS
EPOCH STARTS
TH0 ROB: 4 LSQ: 4 IQ: 0 IPC: 0.0000
TH1 ROB: 105 LSQ: 85 IQ: 96, IPC: 2.1960
TH2 ROB: 4 LSQ: 3 IQ: 0, IPC: 0.0000
TH3 ROB: 4 LSQ: 2 IQ: 0, IPC: 0.0000
EPOCH ENDS
EPOCH STARTS
TH0 ROB: 4 LSQ: 4 IQ: 0 IPC: 0.0000
TH1 ROB: 104 LSQ: 85 IQ: 96, IPC: 2.1960
TH2 ROB: 4 LSQ: 3 IQ: 0, IPC: 0.0000
TH3 ROB: 4 LSQ: 2 IQ: 0, IPC: 0.0000
EPOCH ENDS
EPOCH STARTS
TH0 ROB: 4 LSQ: 4 IQ: 0 IPC: 0.0000
TH1 ROB: 105 LSQ: 87 IQ: 96, IPC: 2.1960
TH2 ROB: 4 LSQ: 3 IQ: 0, IPC: 0.0000
TH3 ROB: 4 LSQ: 2 IQ: 0, IPC: 0.0000
EPOCH ENDS
EPOCH STARTS
TH0 ROB: 4 LSQ: 4 IQ: 0 IPC: 0.0000
TH1 ROB: 105 LSQ: 86 IQ: 96, IPC: 2.1960
TH2 ROB: 4 LSQ: 3 IQ: 0, IPC: 0.0000
TH3 ROB: 4 LSQ: 2 IQ: 0, IPC: 0.0000
EPOCH ENDS
EPOCH STARTS
TH0 ROB: 4 LSQ: 4 IQ: 0 IPC: 0.0000
TH1 ROB: 104 LSQ: 85 IQ: 96, IPC: 2.1960
TH2 ROB: 4 LSQ: 3 IQ: 0, IPC: 0.0000
TH3 ROB: 4 LSQ: 2 IQ: 0, IPC: 0.0000
EPOCH ENDS
EPOCH STARTS
TH0 ROB: 4 LSQ: 4 IQ: 0 IPC: 0.0000
TH1 ROB: 105 LSQ: 86 IQ: 96, IPC: 2.1960
TH2 ROB: 4 LSQ: 3 IQ: 0, IPC: 0.0000
TH3 ROB: 4 LSQ: 2 IQ: 0, IPC: 0.0000
EPOCH ENDS
EPOCH STARTS
TH0 ROB: 4 LSQ: 4 IQ: 0 IPC: 0.0000
TH1 ROB: 105 LSQ: 87 IQ: 96, IPC: 2.1960
TH2 ROB: 4 LSQ: 3 IQ: 0, IPC: 0.0000
TH3 ROB: 4 LSQ: 2 IQ: 0, IPC: 0.0000
EPOCH ENDS
EPOCH STARTS
TH0 ROB: 4 LSQ: 4 IQ: 0 IPC: 0.0000
TH1 ROB: 105 LSQ: 87 IQ: 96, IPC: 2.1960
TH2 ROB: 4 LSQ: 3 IQ: 0, IPC: 0.0000
TH3 ROB: 4 LSQ: 2 IQ: 0, IPC: 0.0000
EPOCH ENDS
EPOCH STARTS
TH0 ROB: 4 LSQ: 4 IQ: 0 IPC: 0.0000
TH1 ROB: 106 LSQ: 87 IQ: 96, IPC: 2.1960
TH2 ROB: 4 LSQ: 3 IQ: 0, IPC: 0.0000
TH3 ROB: 4 LSQ: 2 IQ: 0, IPC: 0.0000
EPOCH ENDS
EPOCH STARTS
TH0 ROB: 4 LSQ: 4 IQ: 0 IPC: 0.0000
TH1 ROB: 104 LSQ: 85 IQ: 96, IPC: 2.1960
TH2 ROB: 4 LSQ: 3 IQ: 0, IPC: 0.0000
TH3 ROB: 4 LSQ: 2 IQ: 0, IPC: 0.0000
EPOCH ENDS
EPOCH STARTS
TH0 ROB: 4 LSQ: 4 IQ: 0 IPC: 0.0000
TH1 ROB: 104 LSQ: 85 IQ: 96, IPC: 2.1960
TH2 ROB: 4 LSQ: 3 IQ: 0, IPC: 0.0000
TH3 ROB: 4 LSQ: 2 IQ: 0, IPC: 0.0000
EPOCH ENDS
EPOCH STARTS
TH0 ROB: 4 LSQ: 4 IQ: 0 IPC: 0.0000
TH1 ROB: 105 LSQ: 87 IQ: 96, IPC: 2.1960
TH2 ROB: 4 LSQ: 3 IQ: 0, IPC: 0.0000
TH3 ROB: 4 LSQ: 2 IQ: 0, IPC: 0.0000
EPOCH ENDS
EPOCH STARTS
TH0 ROB: 4 LSQ: 4 IQ: 0 IPC: 0.0000
TH1 ROB: 106 LSQ: 87 IQ: 96, IPC: 2.1960
TH2 ROB: 4 LSQ: 3 IQ: 0, IPC: 0.0000
TH3 ROB: 4 LSQ: 2 IQ: 0, IPC: 0.0000
EPOCH ENDS
EPOCH STARTS
TH0 ROB: 4 LSQ: 4 IQ: 0 IPC: 0.0000
TH1 ROB: 106 LSQ: 87 IQ: 96, IPC: 2.1960
TH2 ROB: 4 LSQ: 3 IQ: 0, IPC: 0.0000
TH3 ROB: 4 LSQ: 2 IQ: 0, IPC: 0.0000
EPOCH ENDS
EPOCH STARTS
TH0 ROB: 4 LSQ: 4 IQ: 0 IPC: 0.0000
TH1 ROB: 106 LSQ: 87 IQ: 96, IPC: 2.1960
TH2 ROB: 4 LSQ: 3 IQ: 0, IPC: 0.0000
TH3 ROB: 4 LSQ: 2 IQ: 0, IPC: 0.0000
EPOCH ENDS
EPOCH STARTS
TH0 ROB: 4 LSQ: 4 IQ: 0 IPC: 0.0000
TH1 ROB: 104 LSQ: 86 IQ: 96, IPC: 2.1960
TH2 ROB: 4 LSQ: 3 IQ: 0, IPC: 0.0000
TH3 ROB: 4 LSQ: 2 IQ: 0, IPC: 0.0000
EPOCH ENDS
EPOCH STARTS
TH0 ROB: 4 LSQ: 4 IQ: 0 IPC: 0.0000
TH1 ROB: 104 LSQ: 87 IQ: 96, IPC: 2.1960
TH2 ROB: 4 LSQ: 3 IQ: 0, IPC: 0.0000
TH3 ROB: 4 LSQ: 2 IQ: 0, IPC: 0.0000
EPOCH ENDS
EPOCH STARTS
TH0 ROB: 4 LSQ: 4 IQ: 0 IPC: 0.0000
TH1 ROB: 105 LSQ: 86 IQ: 96, IPC: 2.1960
TH2 ROB: 4 LSQ: 3 IQ: 0, IPC: 0.0000
TH3 ROB: 4 LSQ: 2 IQ: 0, IPC: 0.0000
EPOCH ENDS
EPOCH STARTS
TH0 ROB: 4 LSQ: 4 IQ: 0 IPC: 0.0000
TH1 ROB: 105 LSQ: 86 IQ: 96, IPC: 2.1960
TH2 ROB: 4 LSQ: 3 IQ: 0, IPC: 0.0000
TH3 ROB: 4 LSQ: 2 IQ: 0, IPC: 0.0000
EPOCH ENDS
EPOCH STARTS
TH0 ROB: 4 LSQ: 4 IQ: 0 IPC: 0.0000
TH1 ROB: 106 LSQ: 87 IQ: 96, IPC: 2.1960
TH2 ROB: 4 LSQ: 3 IQ: 0, IPC: 0.0000
TH3 ROB: 4 LSQ: 2 IQ: 0, IPC: 0.0000
EPOCH ENDS
EPOCH STARTS
TH0 ROB: 4 LSQ: 4 IQ: 0 IPC: 0.0000
TH1 ROB: 105 LSQ: 87 IQ: 96, IPC: 2.1960
TH2 ROB: 4 LSQ: 3 IQ: 0, IPC: 0.0000
TH3 ROB: 4 LSQ: 2 IQ: 0, IPC: 0.0000
EPOCH ENDS
EPOCH STARTS
TH0 ROB: 4 LSQ: 4 IQ: 0 IPC: 0.0000
TH1 ROB: 105 LSQ: 86 IQ: 96, IPC: 2.1960
TH2 ROB: 4 LSQ: 3 IQ: 0, IPC: 0.0000
TH3 ROB: 4 LSQ: 2 IQ: 0, IPC: 0.0000
EPOCH ENDS
EPOCH STARTS
TH0 ROB: 4 LSQ: 4 IQ: 0 IPC: 0.0000
TH1 ROB: 105 LSQ: 86 IQ: 96, IPC: 2.1960
TH2 ROB: 4 LSQ: 3 IQ: 0, IPC: 0.0000
TH3 ROB: 4 LSQ: 2 IQ: 0, IPC: 0.0000
EPOCH ENDS
EPOCH STARTS
TH0 ROB: 4 LSQ: 4 IQ: 0 IPC: 0.0000
TH1 ROB: 105 LSQ: 86 IQ: 96, IPC: 2.1960
TH2 ROB: 4 LSQ: 3 IQ: 0, IPC: 0.0000
TH3 ROB: 4 LSQ: 2 IQ: 0, IPC: 0.0000
EPOCH ENDS
EPOCH STARTS
TH0 ROB: 4 LSQ: 4 IQ: 0 IPC: 0.0000
TH1 ROB: 105 LSQ: 86 IQ: 96, IPC: 2.1960
TH2 ROB: 4 LSQ: 3 IQ: 0, IPC: 0.0000
TH3 ROB: 4 LSQ: 2 IQ: 0, IPC: 0.0000
EPOCH ENDS
EPOCH STARTS
TH0 ROB: 4 LSQ: 4 IQ: 0 IPC: 0.0000
TH1 ROB: 105 LSQ: 87 IQ: 96, IPC: 2.1960
TH2 ROB: 4 LSQ: 3 IQ: 0, IPC: 0.0000
TH3 ROB: 4 LSQ: 2 IQ: 0, IPC: 0.0000
EPOCH ENDS
EPOCH STARTS
TH0 ROB: 4 LSQ: 4 IQ: 0 IPC: 0.0000
TH1 ROB: 105 LSQ: 86 IQ: 96, IPC: 2.1960
TH2 ROB: 4 LSQ: 3 IQ: 0, IPC: 0.0000
TH3 ROB: 4 LSQ: 2 IQ: 0, IPC: 0.0000
EPOCH ENDS
EPOCH STARTS
TH0 ROB: 4 LSQ: 4 IQ: 0 IPC: 0.0000
TH1 ROB: 105 LSQ: 86 IQ: 96, IPC: 2.1960
TH2 ROB: 4 LSQ: 3 IQ: 0, IPC: 0.0000
TH3 ROB: 4 LSQ: 2 IQ: 0, IPC: 0.0000
EPOCH ENDS
EPOCH STARTS
TH0 ROB: 4 LSQ: 4 IQ: 0 IPC: 0.0000
TH1 ROB: 105 LSQ: 86 IQ: 96, IPC: 2.1960
TH2 ROB: 4 LSQ: 3 IQ: 0, IPC: 0.0000
TH3 ROB: 4 LSQ: 2 IQ: 0, IPC: 0.0000
EPOCH ENDS
EPOCH STARTS
TH0 ROB: 4 LSQ: 4 IQ: 0 IPC: 0.0000
TH1 ROB: 105 LSQ: 87 IQ: 96, IPC: 2.1960
TH2 ROB: 4 LSQ: 3 IQ: 0, IPC: 0.0000
TH3 ROB: 4 LSQ: 2 IQ: 0, IPC: 0.0000
EPOCH ENDS
EPOCH STARTS
TH0 ROB: 4 LSQ: 4 IQ: 0 IPC: 0.0000
TH1 ROB: 105 LSQ: 88 IQ: 96, IPC: 2.1960
TH2 ROB: 4 LSQ: 3 IQ: 0, IPC: 0.0000
TH3 ROB: 4 LSQ: 2 IQ: 0, IPC: 0.0000
EPOCH ENDS
EPOCH STARTS
TH0 ROB: 4 LSQ: 4 IQ: 0 IPC: 0.0000
TH1 ROB: 104 LSQ: 85 IQ: 96, IPC: 2.1960
TH2 ROB: 4 LSQ: 3 IQ: 0, IPC: 0.0000
TH3 ROB: 4 LSQ: 2 IQ: 0, IPC: 0.0000
EPOCH ENDS
EPOCH STARTS
TH0 ROB: 4 LSQ: 4 IQ: 0 IPC: 0.0000
TH1 ROB: 104 LSQ: 85 IQ: 96, IPC: 2.1960
TH2 ROB: 4 LSQ: 3 IQ: 0, IPC: 0.0000
TH3 ROB: 4 LSQ: 2 IQ: 0, IPC: 0.0000
EPOCH ENDS
EPOCH STARTS
TH0 ROB: 4 LSQ: 4 IQ: 0 IPC: 0.0000
TH1 ROB: 105 LSQ: 86 IQ: 96, IPC: 2.1960
TH2 ROB: 4 LSQ: 3 IQ: 0, IPC: 0.0000
TH3 ROB: 4 LSQ: 2 IQ: 0, IPC: 0.0000
EPOCH ENDS
EPOCH STARTS
TH0 ROB: 4 LSQ: 4 IQ: 0 IPC: 0.0000
TH1 ROB: 105 LSQ: 87 IQ: 96, IPC: 2.1960
TH2 ROB: 4 LSQ: 3 IQ: 0, IPC: 0.0000
TH3 ROB: 4 LSQ: 2 IQ: 0, IPC: 0.0000
EPOCH ENDS
EPOCH STARTS
TH0 ROB: 4 LSQ: 4 IQ: 0 IPC: 0.0000
TH1 ROB: 106 LSQ: 87 IQ: 96, IPC: 2.1960
TH2 ROB: 4 LSQ: 3 IQ: 0, IPC: 0.0000
TH3 ROB: 4 LSQ: 2 IQ: 0, IPC: 0.0000
EPOCH ENDS
EPOCH STARTS
TH0 ROB: 4 LSQ: 4 IQ: 0 IPC: 0.0000
TH1 ROB: 104 LSQ: 85 IQ: 96, IPC: 2.1960
TH2 ROB: 4 LSQ: 3 IQ: 0, IPC: 0.0000
TH3 ROB: 4 LSQ: 2 IQ: 0, IPC: 0.0000
EPOCH ENDS
EPOCH STARTS
TH0 ROB: 4 LSQ: 4 IQ: 0 IPC: 0.0000
TH1 ROB: 104 LSQ: 85 IQ: 96, IPC: 2.1960
TH2 ROB: 4 LSQ: 3 IQ: 0, IPC: 0.0000
TH3 ROB: 4 LSQ: 2 IQ: 0, IPC: 0.0000
EPOCH ENDS
EPOCH STARTS
TH0 ROB: 4 LSQ: 4 IQ: 0 IPC: 0.0000
TH1 ROB: 104 LSQ: 85 IQ: 96, IPC: 2.1960
TH2 ROB: 4 LSQ: 3 IQ: 0, IPC: 0.0000
TH3 ROB: 4 LSQ: 2 IQ: 0, IPC: 0.0000
EPOCH ENDS
EPOCH STARTS
TH0 ROB: 4 LSQ: 4 IQ: 0 IPC: 0.0000
TH1 ROB: 105 LSQ: 87 IQ: 96, IPC: 2.1960
TH2 ROB: 4 LSQ: 3 IQ: 0, IPC: 0.0000
TH3 ROB: 4 LSQ: 2 IQ: 0, IPC: 0.0000
EPOCH ENDS
EPOCH STARTS
TH0 ROB: 4 LSQ: 4 IQ: 0 IPC: 0.0000
TH1 ROB: 105 LSQ: 86 IQ: 96, IPC: 2.1960
TH2 ROB: 4 LSQ: 3 IQ: 0, IPC: 0.0000
TH3 ROB: 4 LSQ: 2 IQ: 0, IPC: 0.0000
EPOCH ENDS
EPOCH STARTS
TH0 ROB: 4 LSQ: 4 IQ: 0 IPC: 0.0000
TH1 ROB: 104 LSQ: 85 IQ: 96, IPC: 2.1960
TH2 ROB: 4 LSQ: 3 IQ: 0, IPC: 0.0000
TH3 ROB: 4 LSQ: 2 IQ: 0, IPC: 0.0000
EPOCH ENDS
EPOCH STARTS
TH0 ROB: 4 LSQ: 4 IQ: 0 IPC: 0.0000
TH1 ROB: 104 LSQ: 85 IQ: 96, IPC: 2.1960
TH2 ROB: 4 LSQ: 3 IQ: 0, IPC: 0.0000
TH3 ROB: 4 LSQ: 2 IQ: 0, IPC: 0.0000
EPOCH ENDS
EPOCH STARTS
TH0 ROB: 4 LSQ: 4 IQ: 0 IPC: 0.0000
TH1 ROB: 104 LSQ: 87 IQ: 96, IPC: 2.1960
TH2 ROB: 4 LSQ: 3 IQ: 0, IPC: 0.0000
TH3 ROB: 4 LSQ: 2 IQ: 0, IPC: 0.0000
EPOCH ENDS
EPOCH STARTS
TH0 ROB: 4 LSQ: 4 IQ: 0 IPC: 0.0000
TH1 ROB: 105 LSQ: 87 IQ: 96, IPC: 2.1960
TH2 ROB: 4 LSQ: 3 IQ: 0, IPC: 0.0000
TH3 ROB: 4 LSQ: 2 IQ: 0, IPC: 0.0000
EPOCH ENDS
EPOCH STARTS
TH0 ROB: 4 LSQ: 4 IQ: 0 IPC: 0.0000
TH1 ROB: 105 LSQ: 85 IQ: 96, IPC: 2.1960
TH2 ROB: 4 LSQ: 3 IQ: 0, IPC: 0.0000
TH3 ROB: 4 LSQ: 2 IQ: 0, IPC: 0.0000
EPOCH ENDS
EPOCH STARTS
TH0 ROB: 4 LSQ: 4 IQ: 0 IPC: 0.0000
TH1 ROB: 104 LSQ: 85 IQ: 96, IPC: 2.1960
TH2 ROB: 4 LSQ: 3 IQ: 0, IPC: 0.0000
TH3 ROB: 4 LSQ: 2 IQ: 0, IPC: 0.0000
EPOCH ENDS
EPOCH STARTS
TH0 ROB: 4 LSQ: 4 IQ: 0 IPC: 0.0000
TH1 ROB: 104 LSQ: 85 IQ: 96, IPC: 2.1960
TH2 ROB: 4 LSQ: 3 IQ: 0, IPC: 0.0000
TH3 ROB: 4 LSQ: 2 IQ: 0, IPC: 0.0000
EPOCH ENDS
EPOCH STARTS
TH0 ROB: 4 LSQ: 4 IQ: 0 IPC: 0.0000
TH1 ROB: 104 LSQ: 86 IQ: 96, IPC: 2.1960
TH2 ROB: 4 LSQ: 3 IQ: 0, IPC: 0.0000
TH3 ROB: 4 LSQ: 2 IQ: 0, IPC: 0.0000
EPOCH ENDS
EPOCH STARTS
TH0 ROB: 4 LSQ: 4 IQ: 0 IPC: 0.0000
TH1 ROB: 107 LSQ: 88 IQ: 96, IPC: 2.1960
TH2 ROB: 4 LSQ: 3 IQ: 0, IPC: 0.0000
TH3 ROB: 4 LSQ: 2 IQ: 0, IPC: 0.0000
EPOCH ENDS
EPOCH STARTS
TH0 ROB: 4 LSQ: 4 IQ: 0 IPC: 0.0000
TH1 ROB: 105 LSQ: 86 IQ: 96, IPC: 2.1960
TH2 ROB: 4 LSQ: 3 IQ: 0, IPC: 0.0000
TH3 ROB: 4 LSQ: 2 IQ: 0, IPC: 0.0000
EPOCH ENDS
EPOCH STARTS
TH0 ROB: 4 LSQ: 4 IQ: 0 IPC: 0.0000
TH1 ROB: 105 LSQ: 85 IQ: 96, IPC: 2.1960
TH2 ROB: 4 LSQ: 3 IQ: 0, IPC: 0.0000
TH3 ROB: 4 LSQ: 2 IQ: 0, IPC: 0.0000
EPOCH ENDS
EPOCH STARTS
TH0 ROB: 4 LSQ: 4 IQ: 0 IPC: 0.0000
TH1 ROB: 104 LSQ: 85 IQ: 96, IPC: 2.1960
TH2 ROB: 4 LSQ: 3 IQ: 0, IPC: 0.0000
TH3 ROB: 4 LSQ: 2 IQ: 0, IPC: 0.0000
EPOCH ENDS
EPOCH STARTS
TH0 ROB: 4 LSQ: 4 IQ: 0 IPC: 0.0000
TH1 ROB: 105 LSQ: 87 IQ: 96, IPC: 2.1960
TH2 ROB: 4 LSQ: 3 IQ: 0, IPC: 0.0000
TH3 ROB: 4 LSQ: 2 IQ: 0, IPC: 0.0000
EPOCH ENDS
EPOCH STARTS
TH0 ROB: 4 LSQ: 4 IQ: 0 IPC: 0.0000
TH1 ROB: 105 LSQ: 86 IQ: 96, IPC: 2.1960
TH2 ROB: 4 LSQ: 3 IQ: 0, IPC: 0.0000
TH3 ROB: 4 LSQ: 2 IQ: 0, IPC: 0.0000
EPOCH ENDS
EPOCH STARTS
TH0 ROB: 4 LSQ: 4 IQ: 0 IPC: 0.0000
TH1 ROB: 104 LSQ: 85 IQ: 96, IPC: 2.1960
TH2 ROB: 4 LSQ: 3 IQ: 0, IPC: 0.0000
TH3 ROB: 4 LSQ: 2 IQ: 0, IPC: 0.0000
EPOCH ENDS
EPOCH STARTS
TH0 ROB: 4 LSQ: 4 IQ: 0 IPC: 0.0000
TH1 ROB: 105 LSQ: 86 IQ: 96, IPC: 2.1960
TH2 ROB: 4 LSQ: 3 IQ: 0, IPC: 0.0000
TH3 ROB: 4 LSQ: 2 IQ: 0, IPC: 0.0000
EPOCH ENDS
EPOCH STARTS
TH0 ROB: 4 LSQ: 4 IQ: 0 IPC: 0.0000
TH1 ROB: 105 LSQ: 87 IQ: 96, IPC: 2.1960
TH2 ROB: 4 LSQ: 3 IQ: 0, IPC: 0.0000
TH3 ROB: 4 LSQ: 2 IQ: 0, IPC: 0.0000
EPOCH ENDS
EPOCH STARTS
TH0 ROB: 4 LSQ: 4 IQ: 0 IPC: 0.0000
TH1 ROB: 105 LSQ: 87 IQ: 96, IPC: 2.1960
TH2 ROB: 4 LSQ: 3 IQ: 0, IPC: 0.0000
TH3 ROB: 4 LSQ: 2 IQ: 0, IPC: 0.0000
EPOCH ENDS
EPOCH STARTS
TH0 ROB: 4 LSQ: 4 IQ: 0 IPC: 0.0000
TH1 ROB: 106 LSQ: 87 IQ: 96, IPC: 2.1960
TH2 ROB: 4 LSQ: 3 IQ: 0, IPC: 0.0000
TH3 ROB: 4 LSQ: 2 IQ: 0, IPC: 0.0000
EPOCH ENDS
EPOCH STARTS
TH0 ROB: 4 LSQ: 4 IQ: 0 IPC: 0.0000
TH1 ROB: 104 LSQ: 85 IQ: 96, IPC: 2.1960
TH2 ROB: 4 LSQ: 3 IQ: 0, IPC: 0.0000
TH3 ROB: 4 LSQ: 2 IQ: 0, IPC: 0.0000
EPOCH ENDS
EPOCH STARTS
TH0 ROB: 4 LSQ: 4 IQ: 0 IPC: 0.0000
TH1 ROB: 104 LSQ: 85 IQ: 96, IPC: 2.1960
TH2 ROB: 4 LSQ: 3 IQ: 0, IPC: 0.0000
TH3 ROB: 4 LSQ: 2 IQ: 0, IPC: 0.0000
EPOCH ENDS
EPOCH STARTS
TH0 ROB: 4 LSQ: 4 IQ: 0 IPC: 0.0000
TH1 ROB: 105 LSQ: 87 IQ: 96, IPC: 2.1960
TH2 ROB: 4 LSQ: 3 IQ: 0, IPC: 0.0000
TH3 ROB: 4 LSQ: 2 IQ: 0, IPC: 0.0000
EPOCH ENDS
EPOCH STARTS
TH0 ROB: 4 LSQ: 4 IQ: 0 IPC: 0.0000
TH1 ROB: 106 LSQ: 87 IQ: 96, IPC: 2.1960
TH2 ROB: 4 LSQ: 3 IQ: 0, IPC: 0.0000
TH3 ROB: 4 LSQ: 2 IQ: 0, IPC: 0.0000
EPOCH ENDS
EPOCH STARTS
TH0 ROB: 4 LSQ: 4 IQ: 0 IPC: 0.0000
TH1 ROB: 106 LSQ: 87 IQ: 96, IPC: 2.1960
TH2 ROB: 4 LSQ: 3 IQ: 0, IPC: 0.0000
TH3 ROB: 4 LSQ: 2 IQ: 0, IPC: 0.0000
EPOCH ENDS
EPOCH STARTS
TH0 ROB: 4 LSQ: 4 IQ: 0 IPC: 0.0000
TH1 ROB: 106 LSQ: 87 IQ: 96, IPC: 2.1960
TH2 ROB: 4 LSQ: 3 IQ: 0, IPC: 0.0000
TH3 ROB: 4 LSQ: 2 IQ: 0, IPC: 0.0000
EPOCH ENDS
EPOCH STARTS
TH0 ROB: 4 LSQ: 4 IQ: 0 IPC: 0.0000
TH1 ROB: 104 LSQ: 86 IQ: 96, IPC: 2.1960
TH2 ROB: 4 LSQ: 3 IQ: 0, IPC: 0.0000
TH3 ROB: 4 LSQ: 2 IQ: 0, IPC: 0.0000
EPOCH ENDS
EPOCH STARTS
TH0 ROB: 4 LSQ: 4 IQ: 0 IPC: 0.0000
TH1 ROB: 104 LSQ: 87 IQ: 96, IPC: 2.1960
TH2 ROB: 4 LSQ: 3 IQ: 0, IPC: 0.0000
TH3 ROB: 4 LSQ: 2 IQ: 0, IPC: 0.0000
EPOCH ENDS
EPOCH STARTS
TH0 ROB: 4 LSQ: 4 IQ: 0 IPC: 0.0000
TH1 ROB: 105 LSQ: 86 IQ: 96, IPC: 2.1960
TH2 ROB: 4 LSQ: 3 IQ: 0, IPC: 0.0000
TH3 ROB: 4 LSQ: 2 IQ: 0, IPC: 0.0000
EPOCH ENDS
EPOCH STARTS
TH0 ROB: 4 LSQ: 4 IQ: 0 IPC: 0.0000
TH1 ROB: 105 LSQ: 86 IQ: 96, IPC: 2.1960
TH2 ROB: 4 LSQ: 3 IQ: 0, IPC: 0.0000
TH3 ROB: 4 LSQ: 2 IQ: 0, IPC: 0.0000
EPOCH ENDS
EPOCH STARTS
TH0 ROB: 4 LSQ: 4 IQ: 0 IPC: 0.0000
TH1 ROB: 106 LSQ: 87 IQ: 96, IPC: 2.1960
TH2 ROB: 4 LSQ: 3 IQ: 0, IPC: 0.0000
TH3 ROB: 4 LSQ: 2 IQ: 0, IPC: 0.0000
EPOCH ENDS
EPOCH STARTS
TH0 ROB: 4 LSQ: 4 IQ: 0 IPC: 0.0000
TH1 ROB: 105 LSQ: 87 IQ: 96, IPC: 2.1960
TH2 ROB: 4 LSQ: 3 IQ: 0, IPC: 0.0000
TH3 ROB: 4 LSQ: 2 IQ: 0, IPC: 0.0000
EPOCH ENDS
EPOCH STARTS
TH0 ROB: 4 LSQ: 4 IQ: 0 IPC: 0.0000
TH1 ROB: 105 LSQ: 86 IQ: 96, IPC: 2.1960
TH2 ROB: 4 LSQ: 3 IQ: 0, IPC: 0.0000
TH3 ROB: 4 LSQ: 2 IQ: 0, IPC: 0.0000
EPOCH ENDS
EPOCH STARTS
TH0 ROB: 4 LSQ: 4 IQ: 0 IPC: 0.0000
TH1 ROB: 105 LSQ: 86 IQ: 96, IPC: 2.1960
TH2 ROB: 4 LSQ: 3 IQ: 0, IPC: 0.0000
TH3 ROB: 4 LSQ: 2 IQ: 0, IPC: 0.0000
EPOCH ENDS
EPOCH STARTS
TH0 ROB: 4 LSQ: 4 IQ: 0 IPC: 0.0000
TH1 ROB: 105 LSQ: 86 IQ: 96, IPC: 2.1960
TH2 ROB: 4 LSQ: 3 IQ: 0, IPC: 0.0000
TH3 ROB: 4 LSQ: 2 IQ: 0, IPC: 0.0000
EPOCH ENDS
EPOCH STARTS
TH0 ROB: 4 LSQ: 4 IQ: 0 IPC: 0.0000
TH1 ROB: 105 LSQ: 86 IQ: 96, IPC: 2.1960
TH2 ROB: 4 LSQ: 3 IQ: 0, IPC: 0.0000
TH3 ROB: 4 LSQ: 2 IQ: 0, IPC: 0.0000
EPOCH ENDS
EPOCH STARTS
TH0 ROB: 4 LSQ: 4 IQ: 0 IPC: 0.0000
TH1 ROB: 105 LSQ: 87 IQ: 96, IPC: 2.1960
TH2 ROB: 4 LSQ: 3 IQ: 0, IPC: 0.0000
TH3 ROB: 4 LSQ: 2 IQ: 0, IPC: 0.0000
EPOCH ENDS
EPOCH STARTS
TH0 ROB: 4 LSQ: 4 IQ: 0 IPC: 0.0000
TH1 ROB: 105 LSQ: 86 IQ: 96, IPC: 2.1960
TH2 ROB: 4 LSQ: 3 IQ: 0, IPC: 0.0000
TH3 ROB: 4 LSQ: 2 IQ: 0, IPC: 0.0000
EPOCH ENDS
EPOCH STARTS
TH0 ROB: 4 LSQ: 4 IQ: 0 IPC: 0.0000
TH1 ROB: 105 LSQ: 86 IQ: 96, IPC: 2.1960
TH2 ROB: 4 LSQ: 3 IQ: 0, IPC: 0.0000
TH3 ROB: 4 LSQ: 2 IQ: 0, IPC: 0.0000
EPOCH ENDS
EPOCH STARTS
TH0 ROB: 4 LSQ: 4 IQ: 0 IPC: 0.0000
TH1 ROB: 105 LSQ: 86 IQ: 96, IPC: 2.1960
TH2 ROB: 4 LSQ: 3 IQ: 0, IPC: 0.0000
TH3 ROB: 4 LSQ: 2 IQ: 0, IPC: 0.0000
EPOCH ENDS
EPOCH STARTS
TH0 ROB: 4 LSQ: 4 IQ: 0 IPC: 0.0000
TH1 ROB: 105 LSQ: 87 IQ: 96, IPC: 2.1960
TH2 ROB: 4 LSQ: 3 IQ: 0, IPC: 0.0000
TH3 ROB: 4 LSQ: 2 IQ: 0, IPC: 0.0000
EPOCH ENDS
EPOCH STARTS
TH0 ROB: 4 LSQ: 4 IQ: 0 IPC: 0.0000
TH1 ROB: 105 LSQ: 88 IQ: 96, IPC: 2.1960
TH2 ROB: 4 LSQ: 3 IQ: 0, IPC: 0.0000
TH3 ROB: 4 LSQ: 2 IQ: 0, IPC: 0.0000
EPOCH ENDS
EPOCH STARTS
TH0 ROB: 4 LSQ: 4 IQ: 0 IPC: 0.0000
TH1 ROB: 104 LSQ: 85 IQ: 96, IPC: 2.1960
TH2 ROB: 4 LSQ: 3 IQ: 0, IPC: 0.0000
TH3 ROB: 4 LSQ: 2 IQ: 0, IPC: 0.0000
EPOCH ENDS
EPOCH STARTS
TH0 ROB: 4 LSQ: 4 IQ: 0 IPC: 0.0000
TH1 ROB: 104 LSQ: 85 IQ: 96, IPC: 2.1960
TH2 ROB: 4 LSQ: 3 IQ: 0, IPC: 0.0000
TH3 ROB: 4 LSQ: 2 IQ: 0, IPC: 0.0000
EPOCH ENDS
EPOCH STARTS
TH0 ROB: 4 LSQ: 4 IQ: 0 IPC: 0.0000
TH1 ROB: 105 LSQ: 86 IQ: 96, IPC: 2.1960
TH2 ROB: 4 LSQ: 3 IQ: 0, IPC: 0.0000
TH3 ROB: 4 LSQ: 2 IQ: 0, IPC: 0.0000
EPOCH ENDS
EPOCH STARTS
TH0 ROB: 4 LSQ: 4 IQ: 0 IPC: 0.0000
TH1 ROB: 105 LSQ: 87 IQ: 96, IPC: 2.1960
TH2 ROB: 4 LSQ: 3 IQ: 0, IPC: 0.0000
TH3 ROB: 4 LSQ: 2 IQ: 0, IPC: 0.0000
EPOCH ENDS
EPOCH STARTS
TH0 ROB: 4 LSQ: 4 IQ: 0 IPC: 0.0000
TH1 ROB: 106 LSQ: 87 IQ: 96, IPC: 2.1960
TH2 ROB: 4 LSQ: 3 IQ: 0, IPC: 0.0000
TH3 ROB: 4 LSQ: 2 IQ: 0, IPC: 0.0000
EPOCH ENDS
EPOCH STARTS
TH0 ROB: 4 LSQ: 4 IQ: 0 IPC: 0.0000
TH1 ROB: 104 LSQ: 85 IQ: 96, IPC: 2.1960
TH2 ROB: 4 LSQ: 3 IQ: 0, IPC: 0.0000
TH3 ROB: 4 LSQ: 2 IQ: 0, IPC: 0.0000
EPOCH ENDS
EPOCH STARTS
TH0 ROB: 4 LSQ: 4 IQ: 0 IPC: 0.0000
TH1 ROB: 104 LSQ: 85 IQ: 96, IPC: 2.1960
TH2 ROB: 4 LSQ: 3 IQ: 0, IPC: 0.0000
TH3 ROB: 4 LSQ: 2 IQ: 0, IPC: 0.0000
EPOCH ENDS
EPOCH STARTS
TH0 ROB: 4 LSQ: 4 IQ: 0 IPC: 0.0000
TH1 ROB: 104 LSQ: 85 IQ: 96, IPC: 2.1960
TH2 ROB: 4 LSQ: 3 IQ: 0, IPC: 0.0000
TH3 ROB: 4 LSQ: 2 IQ: 0, IPC: 0.0000
EPOCH ENDS
EPOCH STARTS
TH0 ROB: 4 LSQ: 4 IQ: 0 IPC: 0.0000
TH1 ROB: 105 LSQ: 87 IQ: 96, IPC: 2.1960
TH2 ROB: 4 LSQ: 3 IQ: 0, IPC: 0.0000
TH3 ROB: 4 LSQ: 2 IQ: 0, IPC: 0.0000
EPOCH ENDS
EPOCH STARTS
TH0 ROB: 4 LSQ: 4 IQ: 0 IPC: 0.0000
TH1 ROB: 105 LSQ: 86 IQ: 96, IPC: 2.1960
TH2 ROB: 4 LSQ: 3 IQ: 0, IPC: 0.0000
TH3 ROB: 4 LSQ: 2 IQ: 0, IPC: 0.0000
EPOCH ENDS
EPOCH STARTS
TH0 ROB: 4 LSQ: 4 IQ: 0 IPC: 0.0000
TH1 ROB: 104 LSQ: 85 IQ: 96, IPC: 2.1960
TH2 ROB: 4 LSQ: 3 IQ: 0, IPC: 0.0000
TH3 ROB: 4 LSQ: 2 IQ: 0, IPC: 0.0000
EPOCH ENDS
EPOCH STARTS
TH0 ROB: 4 LSQ: 4 IQ: 0 IPC: 0.0000
TH1 ROB: 104 LSQ: 85 IQ: 96, IPC: 2.1960
TH2 ROB: 4 LSQ: 3 IQ: 0, IPC: 0.0000
TH3 ROB: 4 LSQ: 2 IQ: 0, IPC: 0.0000
EPOCH ENDS
EPOCH STARTS
TH0 ROB: 4 LSQ: 4 IQ: 0 IPC: 0.0000
TH1 ROB: 104 LSQ: 87 IQ: 96, IPC: 2.1960
TH2 ROB: 4 LSQ: 3 IQ: 0, IPC: 0.0000
TH3 ROB: 4 LSQ: 2 IQ: 0, IPC: 0.0000
EPOCH ENDS
EPOCH STARTS
TH0 ROB: 4 LSQ: 4 IQ: 0 IPC: 0.0000
TH1 ROB: 105 LSQ: 87 IQ: 96, IPC: 2.1960
TH2 ROB: 4 LSQ: 3 IQ: 0, IPC: 0.0000
TH3 ROB: 4 LSQ: 2 IQ: 0, IPC: 0.0000
EPOCH ENDS
EPOCH STARTS
TH0 ROB: 4 LSQ: 4 IQ: 0 IPC: 0.0000
TH1 ROB: 105 LSQ: 85 IQ: 96, IPC: 2.1960
TH2 ROB: 4 LSQ: 3 IQ: 0, IPC: 0.0000
TH3 ROB: 4 LSQ: 2 IQ: 0, IPC: 0.0000
EPOCH ENDS
EPOCH STARTS
TH0 ROB: 4 LSQ: 4 IQ: 0 IPC: 0.0000
TH1 ROB: 104 LSQ: 85 IQ: 96, IPC: 2.1960
TH2 ROB: 4 LSQ: 3 IQ: 0, IPC: 0.0000
TH3 ROB: 4 LSQ: 2 IQ: 0, IPC: 0.0000
EPOCH ENDS
EPOCH STARTS
TH0 ROB: 4 LSQ: 4 IQ: 0 IPC: 0.0000
TH1 ROB: 104 LSQ: 85 IQ: 96, IPC: 2.1960
TH2 ROB: 4 LSQ: 3 IQ: 0, IPC: 0.0000
TH3 ROB: 4 LSQ: 2 IQ: 0, IPC: 0.0000
EPOCH ENDS
EPOCH STARTS
TH0 ROB: 4 LSQ: 4 IQ: 0 IPC: 0.0000
TH1 ROB: 104 LSQ: 86 IQ: 96, IPC: 2.1960
TH2 ROB: 4 LSQ: 3 IQ: 0, IPC: 0.0000
TH3 ROB: 4 LSQ: 2 IQ: 0, IPC: 0.0000
EPOCH ENDS
EPOCH STARTS
TH0 ROB: 4 LSQ: 4 IQ: 0 IPC: 0.0000
TH1 ROB: 107 LSQ: 88 IQ: 96, IPC: 2.1960
TH2 ROB: 4 LSQ: 3 IQ: 0, IPC: 0.0000
TH3 ROB: 4 LSQ: 2 IQ: 0, IPC: 0.0000
EPOCH ENDS
EPOCH STARTS
TH0 ROB: 4 LSQ: 4 IQ: 0 IPC: 0.0000
TH1 ROB: 105 LSQ: 86 IQ: 96, IPC: 2.1960
TH2 ROB: 4 LSQ: 3 IQ: 0, IPC: 0.0000
TH3 ROB: 4 LSQ: 2 IQ: 0, IPC: 0.0000
EPOCH ENDS
EPOCH STARTS
TH0 ROB: 4 LSQ: 4 IQ: 0 IPC: 0.0000
TH1 ROB: 105 LSQ: 85 IQ: 96, IPC: 2.1960
TH2 ROB: 4 LSQ: 3 IQ: 0, IPC: 0.0000
TH3 ROB: 4 LSQ: 2 IQ: 0, IPC: 0.0000
EPOCH ENDS
EPOCH STARTS
TH0 ROB: 4 LSQ: 4 IQ: 0 IPC: 0.0000
TH1 ROB: 104 LSQ: 85 IQ: 96, IPC: 2.1960
TH2 ROB: 4 LSQ: 3 IQ: 0, IPC: 0.0000
TH3 ROB: 4 LSQ: 2 IQ: 0, IPC: 0.0000
EPOCH ENDS
EPOCH STARTS
TH0 ROB: 4 LSQ: 4 IQ: 0 IPC: 0.0000
TH1 ROB: 105 LSQ: 87 IQ: 96, IPC: 2.1960
TH2 ROB: 4 LSQ: 3 IQ: 0, IPC: 0.0000
TH3 ROB: 4 LSQ: 2 IQ: 0, IPC: 0.0000
EPOCH ENDS
EPOCH STARTS
TH0 ROB: 4 LSQ: 4 IQ: 0 IPC: 0.0000
TH1 ROB: 105 LSQ: 86 IQ: 96, IPC: 2.1960
TH2 ROB: 4 LSQ: 3 IQ: 0, IPC: 0.0000
TH3 ROB: 4 LSQ: 2 IQ: 0, IPC: 0.0000
EPOCH ENDS
EPOCH STARTS
TH0 ROB: 4 LSQ: 4 IQ: 0 IPC: 0.0000
TH1 ROB: 104 LSQ: 85 IQ: 96, IPC: 2.1960
TH2 ROB: 4 LSQ: 3 IQ: 0, IPC: 0.0000
TH3 ROB: 4 LSQ: 2 IQ: 0, IPC: 0.0000
EPOCH ENDS
EPOCH STARTS
TH0 ROB: 4 LSQ: 4 IQ: 0 IPC: 0.0000
TH1 ROB: 105 LSQ: 86 IQ: 96, IPC: 2.1960
TH2 ROB: 4 LSQ: 3 IQ: 0, IPC: 0.0000
TH3 ROB: 4 LSQ: 2 IQ: 0, IPC: 0.0000
EPOCH ENDS
EPOCH STARTS
TH0 ROB: 4 LSQ: 4 IQ: 0 IPC: 0.0000
TH1 ROB: 105 LSQ: 87 IQ: 96, IPC: 2.1960
TH2 ROB: 4 LSQ: 3 IQ: 0, IPC: 0.0000
TH3 ROB: 4 LSQ: 2 IQ: 0, IPC: 0.0000
EPOCH ENDS
EPOCH STARTS
TH0 ROB: 4 LSQ: 4 IQ: 0 IPC: 0.0000
TH1 ROB: 105 LSQ: 87 IQ: 96, IPC: 2.1960
TH2 ROB: 4 LSQ: 3 IQ: 0, IPC: 0.0000
TH3 ROB: 4 LSQ: 2 IQ: 0, IPC: 0.0000
EPOCH ENDS
EPOCH STARTS
TH0 ROB: 4 LSQ: 4 IQ: 0 IPC: 0.0000
TH1 ROB: 106 LSQ: 87 IQ: 96, IPC: 2.1960
TH2 ROB: 4 LSQ: 3 IQ: 0, IPC: 0.0000
TH3 ROB: 4 LSQ: 2 IQ: 0, IPC: 0.0000
EPOCH ENDS
EPOCH STARTS
TH0 ROB: 4 LSQ: 4 IQ: 0 IPC: 0.0000
TH1 ROB: 104 LSQ: 85 IQ: 96, IPC: 2.1960
TH2 ROB: 4 LSQ: 3 IQ: 0, IPC: 0.0000
TH3 ROB: 4 LSQ: 2 IQ: 0, IPC: 0.0000
EPOCH ENDS
EPOCH STARTS
TH0 ROB: 4 LSQ: 4 IQ: 0 IPC: 0.0000
TH1 ROB: 104 LSQ: 85 IQ: 96, IPC: 2.1960
TH2 ROB: 4 LSQ: 3 IQ: 0, IPC: 0.0000
TH3 ROB: 4 LSQ: 2 IQ: 0, IPC: 0.0000
EPOCH ENDS
EPOCH STARTS
TH0 ROB: 4 LSQ: 4 IQ: 0 IPC: 0.0000
TH1 ROB: 105 LSQ: 87 IQ: 96, IPC: 2.1960
TH2 ROB: 4 LSQ: 3 IQ: 0, IPC: 0.0000
TH3 ROB: 4 LSQ: 2 IQ: 0, IPC: 0.0000
EPOCH ENDS
EPOCH STARTS
TH0 ROB: 4 LSQ: 4 IQ: 0 IPC: 0.0000
TH1 ROB: 106 LSQ: 87 IQ: 96, IPC: 2.1960
TH2 ROB: 4 LSQ: 3 IQ: 0, IPC: 0.0000
TH3 ROB: 4 LSQ: 2 IQ: 0, IPC: 0.0000
EPOCH ENDS
EPOCH STARTS
TH0 ROB: 4 LSQ: 4 IQ: 0 IPC: 0.0000
TH1 ROB: 106 LSQ: 87 IQ: 96, IPC: 2.1960
TH2 ROB: 4 LSQ: 3 IQ: 0, IPC: 0.0000
TH3 ROB: 4 LSQ: 2 IQ: 0, IPC: 0.0000
EPOCH ENDS
EPOCH STARTS
TH0 ROB: 4 LSQ: 4 IQ: 0 IPC: 0.0000
TH1 ROB: 106 LSQ: 87 IQ: 96, IPC: 2.1960
TH2 ROB: 4 LSQ: 3 IQ: 0, IPC: 0.0000
TH3 ROB: 4 LSQ: 2 IQ: 0, IPC: 0.0000
EPOCH ENDS
EPOCH STARTS
TH0 ROB: 4 LSQ: 4 IQ: 0 IPC: 0.0000
TH1 ROB: 104 LSQ: 86 IQ: 96, IPC: 2.1960
TH2 ROB: 4 LSQ: 3 IQ: 0, IPC: 0.0000
TH3 ROB: 4 LSQ: 2 IQ: 0, IPC: 0.0000
EPOCH ENDS
EPOCH STARTS
TH0 ROB: 4 LSQ: 4 IQ: 0 IPC: 0.0000
TH1 ROB: 104 LSQ: 87 IQ: 96, IPC: 2.1960
TH2 ROB: 4 LSQ: 3 IQ: 0, IPC: 0.0000
TH3 ROB: 4 LSQ: 2 IQ: 0, IPC: 0.0000
EPOCH ENDS
EPOCH STARTS
TH0 ROB: 4 LSQ: 4 IQ: 0 IPC: 0.0000
TH1 ROB: 105 LSQ: 86 IQ: 96, IPC: 2.1960
TH2 ROB: 4 LSQ: 3 IQ: 0, IPC: 0.0000
TH3 ROB: 4 LSQ: 2 IQ: 0, IPC: 0.0000
EPOCH ENDS
EPOCH STARTS
TH0 ROB: 4 LSQ: 4 IQ: 0 IPC: 0.0000
TH1 ROB: 105 LSQ: 86 IQ: 96, IPC: 2.1960
TH2 ROB: 4 LSQ: 3 IQ: 0, IPC: 0.0000
TH3 ROB: 4 LSQ: 2 IQ: 0, IPC: 0.0000
EPOCH ENDS
EPOCH STARTS
TH0 ROB: 4 LSQ: 4 IQ: 0 IPC: 0.0000
TH1 ROB: 106 LSQ: 87 IQ: 96, IPC: 2.1960
TH2 ROB: 4 LSQ: 3 IQ: 0, IPC: 0.0000
TH3 ROB: 4 LSQ: 2 IQ: 0, IPC: 0.0000
EPOCH ENDS
EPOCH STARTS
TH0 ROB: 4 LSQ: 4 IQ: 0 IPC: 0.0000
TH1 ROB: 105 LSQ: 87 IQ: 96, IPC: 2.1960
TH2 ROB: 4 LSQ: 3 IQ: 0, IPC: 0.0000
TH3 ROB: 4 LSQ: 2 IQ: 0, IPC: 0.0000
EPOCH ENDS
EPOCH STARTS
TH0 ROB: 4 LSQ: 4 IQ: 0 IPC: 0.0000
TH1 ROB: 105 LSQ: 86 IQ: 96, IPC: 2.1960
TH2 ROB: 4 LSQ: 3 IQ: 0, IPC: 0.0000
TH3 ROB: 4 LSQ: 2 IQ: 0, IPC: 0.0000
EPOCH ENDS
EPOCH STARTS
TH0 ROB: 4 LSQ: 4 IQ: 0 IPC: 0.0000
TH1 ROB: 105 LSQ: 86 IQ: 96, IPC: 2.1960
TH2 ROB: 4 LSQ: 3 IQ: 0, IPC: 0.0000
TH3 ROB: 4 LSQ: 2 IQ: 0, IPC: 0.0000
EPOCH ENDS
EPOCH STARTS
TH0 ROB: 4 LSQ: 4 IQ: 0 IPC: 0.0000
TH1 ROB: 105 LSQ: 86 IQ: 96, IPC: 2.1960
TH2 ROB: 4 LSQ: 3 IQ: 0, IPC: 0.0000
TH3 ROB: 4 LSQ: 2 IQ: 0, IPC: 0.0000
EPOCH ENDS
EPOCH STARTS
TH0 ROB: 4 LSQ: 4 IQ: 0 IPC: 0.0000
TH1 ROB: 105 LSQ: 86 IQ: 96, IPC: 2.1960
TH2 ROB: 4 LSQ: 3 IQ: 0, IPC: 0.0000
TH3 ROB: 4 LSQ: 2 IQ: 0, IPC: 0.0000
EPOCH ENDS
EPOCH STARTS
TH0 ROB: 4 LSQ: 4 IQ: 0 IPC: 0.0000
TH1 ROB: 105 LSQ: 87 IQ: 96, IPC: 2.1960
TH2 ROB: 4 LSQ: 3 IQ: 0, IPC: 0.0000
TH3 ROB: 4 LSQ: 2 IQ: 0, IPC: 0.0000
EPOCH ENDS
EPOCH STARTS
TH0 ROB: 4 LSQ: 4 IQ: 0 IPC: 0.0000
TH1 ROB: 105 LSQ: 86 IQ: 96, IPC: 2.1960
TH2 ROB: 4 LSQ: 3 IQ: 0, IPC: 0.0000
TH3 ROB: 4 LSQ: 2 IQ: 0, IPC: 0.0000
EPOCH ENDS
EPOCH STARTS
TH0 ROB: 4 LSQ: 4 IQ: 0 IPC: 0.0000
TH1 ROB: 105 LSQ: 86 IQ: 96, IPC: 2.1960
TH2 ROB: 4 LSQ: 3 IQ: 0, IPC: 0.0000
TH3 ROB: 4 LSQ: 2 IQ: 0, IPC: 0.0000
EPOCH ENDS
EPOCH STARTS
TH0 ROB: 4 LSQ: 4 IQ: 0 IPC: 0.0000
TH1 ROB: 105 LSQ: 86 IQ: 96, IPC: 2.1960
TH2 ROB: 4 LSQ: 3 IQ: 0, IPC: 0.0000
TH3 ROB: 4 LSQ: 2 IQ: 0, IPC: 0.0000
EPOCH ENDS
EPOCH STARTS
TH0 ROB: 4 LSQ: 4 IQ: 0 IPC: 0.0000
TH1 ROB: 105 LSQ: 87 IQ: 96, IPC: 2.1960
TH2 ROB: 4 LSQ: 3 IQ: 0, IPC: 0.0000
TH3 ROB: 4 LSQ: 2 IQ: 0, IPC: 0.0000
EPOCH ENDS
EPOCH STARTS
TH0 ROB: 4 LSQ: 4 IQ: 0 IPC: 0.0000
TH1 ROB: 105 LSQ: 88 IQ: 96, IPC: 2.1960
TH2 ROB: 4 LSQ: 3 IQ: 0, IPC: 0.0000
TH3 ROB: 4 LSQ: 2 IQ: 0, IPC: 0.0000
EPOCH ENDS
EPOCH STARTS
TH0 ROB: 4 LSQ: 4 IQ: 0 IPC: 0.0000
TH1 ROB: 104 LSQ: 85 IQ: 96, IPC: 2.1960
TH2 ROB: 4 LSQ: 3 IQ: 0, IPC: 0.0000
TH3 ROB: 4 LSQ: 2 IQ: 0, IPC: 0.0000
EPOCH ENDS
EPOCH STARTS
TH0 ROB: 4 LSQ: 4 IQ: 0 IPC: 0.0000
TH1 ROB: 104 LSQ: 85 IQ: 96, IPC: 2.1960
TH2 ROB: 4 LSQ: 3 IQ: 0, IPC: 0.0000
TH3 ROB: 4 LSQ: 2 IQ: 0, IPC: 0.0000
EPOCH ENDS
EPOCH STARTS
TH0 ROB: 4 LSQ: 4 IQ: 0 IPC: 0.0000
TH1 ROB: 105 LSQ: 86 IQ: 96, IPC: 2.1960
TH2 ROB: 4 LSQ: 3 IQ: 0, IPC: 0.0000
TH3 ROB: 4 LSQ: 2 IQ: 0, IPC: 0.0000
EPOCH ENDS
EPOCH STARTS
TH0 ROB: 4 LSQ: 4 IQ: 0 IPC: 0.0000
TH1 ROB: 105 LSQ: 87 IQ: 96, IPC: 2.1960
TH2 ROB: 4 LSQ: 3 IQ: 0, IPC: 0.0000
TH3 ROB: 4 LSQ: 2 IQ: 0, IPC: 0.0000
EPOCH ENDS
EPOCH STARTS
TH0 ROB: 4 LSQ: 4 IQ: 0 IPC: 0.0000
TH1 ROB: 106 LSQ: 87 IQ: 96, IPC: 2.1960
TH2 ROB: 4 LSQ: 3 IQ: 0, IPC: 0.0000
TH3 ROB: 4 LSQ: 2 IQ: 0, IPC: 0.0000
EPOCH ENDS
EPOCH STARTS
TH0 ROB: 4 LSQ: 4 IQ: 0 IPC: 0.0000
TH1 ROB: 104 LSQ: 85 IQ: 96, IPC: 2.1960
TH2 ROB: 4 LSQ: 3 IQ: 0, IPC: 0.0000
TH3 ROB: 4 LSQ: 2 IQ: 0, IPC: 0.0000
EPOCH ENDS
EPOCH STARTS
TH0 ROB: 4 LSQ: 4 IQ: 0 IPC: 0.0000
TH1 ROB: 104 LSQ: 85 IQ: 96, IPC: 2.1960
TH2 ROB: 4 LSQ: 3 IQ: 0, IPC: 0.0000
TH3 ROB: 4 LSQ: 2 IQ: 0, IPC: 0.0000
EPOCH ENDS
EPOCH STARTS
TH0 ROB: 4 LSQ: 4 IQ: 0 IPC: 0.0000
TH1 ROB: 104 LSQ: 85 IQ: 96, IPC: 2.1960
TH2 ROB: 4 LSQ: 3 IQ: 0, IPC: 0.0000
TH3 ROB: 4 LSQ: 2 IQ: 0, IPC: 0.0000
EPOCH ENDS
EPOCH STARTS
TH0 ROB: 4 LSQ: 4 IQ: 0 IPC: 0.0000
TH1 ROB: 105 LSQ: 87 IQ: 96, IPC: 2.1960
TH2 ROB: 4 LSQ: 3 IQ: 0, IPC: 0.0000
TH3 ROB: 4 LSQ: 2 IQ: 0, IPC: 0.0000
EPOCH ENDS
EPOCH STARTS
TH0 ROB: 4 LSQ: 4 IQ: 0 IPC: 0.0000
TH1 ROB: 105 LSQ: 86 IQ: 96, IPC: 2.1960
TH2 ROB: 4 LSQ: 3 IQ: 0, IPC: 0.0000
TH3 ROB: 4 LSQ: 2 IQ: 0, IPC: 0.0000
EPOCH ENDS
EPOCH STARTS
TH0 ROB: 4 LSQ: 4 IQ: 0 IPC: 0.0000
TH1 ROB: 104 LSQ: 85 IQ: 96, IPC: 2.1960
TH2 ROB: 4 LSQ: 3 IQ: 0, IPC: 0.0000
TH3 ROB: 4 LSQ: 2 IQ: 0, IPC: 0.0000
EPOCH ENDS
EPOCH STARTS
TH0 ROB: 4 LSQ: 4 IQ: 0 IPC: 0.0000
TH1 ROB: 104 LSQ: 85 IQ: 96, IPC: 2.1960
TH2 ROB: 4 LSQ: 3 IQ: 0, IPC: 0.0000
TH3 ROB: 4 LSQ: 2 IQ: 0, IPC: 0.0000
EPOCH ENDS
EPOCH STARTS
TH0 ROB: 4 LSQ: 4 IQ: 0 IPC: 0.0000
TH1 ROB: 104 LSQ: 87 IQ: 96, IPC: 2.1960
TH2 ROB: 4 LSQ: 3 IQ: 0, IPC: 0.0000
TH3 ROB: 4 LSQ: 2 IQ: 0, IPC: 0.0000
EPOCH ENDS
EPOCH STARTS
TH0 ROB: 4 LSQ: 4 IQ: 0 IPC: 0.0000
TH1 ROB: 105 LSQ: 87 IQ: 96, IPC: 2.1960
TH2 ROB: 4 LSQ: 3 IQ: 0, IPC: 0.0000
TH3 ROB: 4 LSQ: 2 IQ: 0, IPC: 0.0000
EPOCH ENDS
EPOCH STARTS
TH0 ROB: 4 LSQ: 4 IQ: 0 IPC: 0.0000
TH1 ROB: 105 LSQ: 85 IQ: 96, IPC: 2.1960
TH2 ROB: 4 LSQ: 3 IQ: 0, IPC: 0.0000
TH3 ROB: 4 LSQ: 2 IQ: 0, IPC: 0.0000
EPOCH ENDS
EPOCH STARTS
TH0 ROB: 4 LSQ: 4 IQ: 0 IPC: 0.0000
TH1 ROB: 104 LSQ: 85 IQ: 96, IPC: 2.1960
TH2 ROB: 4 LSQ: 3 IQ: 0, IPC: 0.0000
TH3 ROB: 4 LSQ: 2 IQ: 0, IPC: 0.0000
EPOCH ENDS
EPOCH STARTS
TH0 ROB: 4 LSQ: 4 IQ: 0 IPC: 0.0000
TH1 ROB: 104 LSQ: 85 IQ: 96, IPC: 2.1960
TH2 ROB: 4 LSQ: 3 IQ: 0, IPC: 0.0000
TH3 ROB: 4 LSQ: 2 IQ: 0, IPC: 0.0000
EPOCH ENDS
EPOCH STARTS
TH0 ROB: 4 LSQ: 4 IQ: 0 IPC: 0.0000
TH1 ROB: 104 LSQ: 86 IQ: 96, IPC: 2.1960
TH2 ROB: 4 LSQ: 3 IQ: 0, IPC: 0.0000
TH3 ROB: 4 LSQ: 2 IQ: 0, IPC: 0.0000
EPOCH ENDS
EPOCH STARTS
TH0 ROB: 4 LSQ: 4 IQ: 0 IPC: 0.0000
TH1 ROB: 107 LSQ: 88 IQ: 96, IPC: 2.1960
TH2 ROB: 4 LSQ: 3 IQ: 0, IPC: 0.0000
TH3 ROB: 4 LSQ: 2 IQ: 0, IPC: 0.0000
EPOCH ENDS
EPOCH STARTS
TH0 ROB: 4 LSQ: 4 IQ: 0 IPC: 0.0000
TH1 ROB: 105 LSQ: 86 IQ: 96, IPC: 2.1960
TH2 ROB: 4 LSQ: 3 IQ: 0, IPC: 0.0000
TH3 ROB: 4 LSQ: 2 IQ: 0, IPC: 0.0000
EPOCH ENDS
EPOCH STARTS
TH0 ROB: 4 LSQ: 4 IQ: 0 IPC: 0.0000
TH1 ROB: 105 LSQ: 85 IQ: 96, IPC: 2.1960
TH2 ROB: 4 LSQ: 3 IQ: 0, IPC: 0.0000
TH3 ROB: 4 LSQ: 2 IQ: 0, IPC: 0.0000
EPOCH ENDS
EPOCH STARTS
TH0 ROB: 4 LSQ: 4 IQ: 0 IPC: 0.0000
TH1 ROB: 104 LSQ: 85 IQ: 96, IPC: 2.1960
TH2 ROB: 4 LSQ: 3 IQ: 0, IPC: 0.0000
TH3 ROB: 4 LSQ: 2 IQ: 0, IPC: 0.0000
EPOCH ENDS
EPOCH STARTS
TH0 ROB: 4 LSQ: 4 IQ: 0 IPC: 0.0000
TH1 ROB: 105 LSQ: 87 IQ: 96, IPC: 2.1960
TH2 ROB: 4 LSQ: 3 IQ: 0, IPC: 0.0000
TH3 ROB: 4 LSQ: 2 IQ: 0, IPC: 0.0000
EPOCH ENDS
EPOCH STARTS
TH0 ROB: 4 LSQ: 4 IQ: 0 IPC: 0.0000
TH1 ROB: 105 LSQ: 86 IQ: 96, IPC: 2.1960
TH2 ROB: 4 LSQ: 3 IQ: 0, IPC: 0.0000
TH3 ROB: 4 LSQ: 2 IQ: 0, IPC: 0.0000
EPOCH ENDS
EPOCH STARTS
TH0 ROB: 4 LSQ: 4 IQ: 0 IPC: 0.0000
TH1 ROB: 104 LSQ: 85 IQ: 96, IPC: 2.1960
TH2 ROB: 4 LSQ: 3 IQ: 0, IPC: 0.0000
TH3 ROB: 4 LSQ: 2 IQ: 0, IPC: 0.0000
EPOCH ENDS
EPOCH STARTS
TH0 ROB: 4 LSQ: 4 IQ: 0 IPC: 0.0000
TH1 ROB: 105 LSQ: 86 IQ: 96, IPC: 2.1960
TH2 ROB: 4 LSQ: 3 IQ: 0, IPC: 0.0000
TH3 ROB: 4 LSQ: 2 IQ: 0, IPC: 0.0000
EPOCH ENDS
EPOCH STARTS
TH0 ROB: 4 LSQ: 4 IQ: 0 IPC: 0.0000
TH1 ROB: 105 LSQ: 87 IQ: 96, IPC: 2.1960
TH2 ROB: 4 LSQ: 3 IQ: 0, IPC: 0.0000
TH3 ROB: 4 LSQ: 2 IQ: 0, IPC: 0.0000
EPOCH ENDS
EPOCH STARTS
TH0 ROB: 4 LSQ: 4 IQ: 0 IPC: 0.0000
TH1 ROB: 105 LSQ: 87 IQ: 96, IPC: 2.1960
TH2 ROB: 4 LSQ: 3 IQ: 0, IPC: 0.0000
TH3 ROB: 4 LSQ: 2 IQ: 0, IPC: 0.0000
EPOCH ENDS
EPOCH STARTS
TH0 ROB: 4 LSQ: 4 IQ: 0 IPC: 0.0000
TH1 ROB: 106 LSQ: 87 IQ: 96, IPC: 2.1960
TH2 ROB: 4 LSQ: 3 IQ: 0, IPC: 0.0000
TH3 ROB: 4 LSQ: 2 IQ: 0, IPC: 0.0000
EPOCH ENDS
EPOCH STARTS
TH0 ROB: 4 LSQ: 4 IQ: 0 IPC: 0.0000
TH1 ROB: 104 LSQ: 85 IQ: 96, IPC: 2.1960
TH2 ROB: 4 LSQ: 3 IQ: 0, IPC: 0.0000
TH3 ROB: 4 LSQ: 2 IQ: 0, IPC: 0.0000
EPOCH ENDS
EPOCH STARTS
TH0 ROB: 4 LSQ: 4 IQ: 0 IPC: 0.0000
TH1 ROB: 104 LSQ: 85 IQ: 96, IPC: 2.1960
TH2 ROB: 4 LSQ: 3 IQ: 0, IPC: 0.0000
TH3 ROB: 4 LSQ: 2 IQ: 0, IPC: 0.0000
EPOCH ENDS
EPOCH STARTS
TH0 ROB: 4 LSQ: 4 IQ: 0 IPC: 0.0000
TH1 ROB: 105 LSQ: 87 IQ: 96, IPC: 2.1960
TH2 ROB: 4 LSQ: 3 IQ: 0, IPC: 0.0000
TH3 ROB: 4 LSQ: 2 IQ: 0, IPC: 0.0000
EPOCH ENDS
EPOCH STARTS
TH0 ROB: 4 LSQ: 4 IQ: 0 IPC: 0.0000
TH1 ROB: 106 LSQ: 87 IQ: 96, IPC: 2.1960
TH2 ROB: 4 LSQ: 3 IQ: 0, IPC: 0.0000
TH3 ROB: 4 LSQ: 2 IQ: 0, IPC: 0.0000
EPOCH ENDS
EPOCH STARTS
TH0 ROB: 4 LSQ: 4 IQ: 0 IPC: 0.0000
TH1 ROB: 106 LSQ: 87 IQ: 96, IPC: 2.1960
TH2 ROB: 4 LSQ: 3 IQ: 0, IPC: 0.0000
TH3 ROB: 4 LSQ: 2 IQ: 0, IPC: 0.0000
EPOCH ENDS
EPOCH STARTS
TH0 ROB: 4 LSQ: 4 IQ: 0 IPC: 0.0000
TH1 ROB: 106 LSQ: 87 IQ: 96, IPC: 2.1960
TH2 ROB: 4 LSQ: 3 IQ: 0, IPC: 0.0000
TH3 ROB: 4 LSQ: 2 IQ: 0, IPC: 0.0000
EPOCH ENDS
EPOCH STARTS
TH0 ROB: 4 LSQ: 4 IQ: 0 IPC: 0.0000
TH1 ROB: 104 LSQ: 86 IQ: 96, IPC: 2.1960
TH2 ROB: 4 LSQ: 3 IQ: 0, IPC: 0.0000
TH3 ROB: 4 LSQ: 2 IQ: 0, IPC: 0.0000
EPOCH ENDS
EPOCH STARTS
TH0 ROB: 4 LSQ: 4 IQ: 0 IPC: 0.0000
TH1 ROB: 104 LSQ: 87 IQ: 96, IPC: 2.1960
TH2 ROB: 4 LSQ: 3 IQ: 0, IPC: 0.0000
TH3 ROB: 4 LSQ: 2 IQ: 0, IPC: 0.0000
EPOCH ENDS
EPOCH STARTS
TH0 ROB: 4 LSQ: 4 IQ: 0 IPC: 0.0000
TH1 ROB: 105 LSQ: 86 IQ: 96, IPC: 2.1960
TH2 ROB: 4 LSQ: 3 IQ: 0, IPC: 0.0000
TH3 ROB: 4 LSQ: 2 IQ: 0, IPC: 0.0000
EPOCH ENDS
EPOCH STARTS
TH0 ROB: 4 LSQ: 4 IQ: 0 IPC: 0.0000
TH1 ROB: 105 LSQ: 86 IQ: 96, IPC: 2.1960
TH2 ROB: 4 LSQ: 3 IQ: 0, IPC: 0.0000
TH3 ROB: 4 LSQ: 2 IQ: 0, IPC: 0.0000
EPOCH ENDS
EPOCH STARTS
TH0 ROB: 4 LSQ: 4 IQ: 0 IPC: 0.0000
TH1 ROB: 106 LSQ: 87 IQ: 96, IPC: 2.1960
TH2 ROB: 4 LSQ: 3 IQ: 0, IPC: 0.0000
TH3 ROB: 4 LSQ: 2 IQ: 0, IPC: 0.0000
EPOCH ENDS
EPOCH STARTS
TH0 ROB: 4 LSQ: 4 IQ: 0 IPC: 0.0000
TH1 ROB: 105 LSQ: 87 IQ: 96, IPC: 2.1960
TH2 ROB: 4 LSQ: 3 IQ: 0, IPC: 0.0000
TH3 ROB: 4 LSQ: 2 IQ: 0, IPC: 0.0000
EPOCH ENDS
EPOCH STARTS
TH0 ROB: 4 LSQ: 4 IQ: 0 IPC: 0.0000
TH1 ROB: 105 LSQ: 86 IQ: 96, IPC: 2.1960
TH2 ROB: 4 LSQ: 3 IQ: 0, IPC: 0.0000
TH3 ROB: 4 LSQ: 2 IQ: 0, IPC: 0.0000
EPOCH ENDS
EPOCH STARTS
TH0 ROB: 4 LSQ: 4 IQ: 0 IPC: 0.0000
TH1 ROB: 105 LSQ: 86 IQ: 96, IPC: 2.1960
TH2 ROB: 4 LSQ: 3 IQ: 0, IPC: 0.0000
TH3 ROB: 4 LSQ: 2 IQ: 0, IPC: 0.0000
EPOCH ENDS
EPOCH STARTS
TH0 ROB: 4 LSQ: 4 IQ: 0 IPC: 0.0000
TH1 ROB: 105 LSQ: 86 IQ: 96, IPC: 2.1960
TH2 ROB: 4 LSQ: 3 IQ: 0, IPC: 0.0000
TH3 ROB: 4 LSQ: 2 IQ: 0, IPC: 0.0000
EPOCH ENDS
EPOCH STARTS
TH0 ROB: 4 LSQ: 4 IQ: 0 IPC: 0.0000
TH1 ROB: 105 LSQ: 86 IQ: 96, IPC: 2.1960
TH2 ROB: 4 LSQ: 3 IQ: 0, IPC: 0.0000
TH3 ROB: 4 LSQ: 2 IQ: 0, IPC: 0.0000
EPOCH ENDS
EPOCH STARTS
TH0 ROB: 4 LSQ: 4 IQ: 0 IPC: 0.0000
TH1 ROB: 105 LSQ: 87 IQ: 96, IPC: 2.1960
TH2 ROB: 4 LSQ: 3 IQ: 0, IPC: 0.0000
TH3 ROB: 4 LSQ: 2 IQ: 0, IPC: 0.0000
EPOCH ENDS
EPOCH STARTS
TH0 ROB: 4 LSQ: 4 IQ: 0 IPC: 0.0000
TH1 ROB: 105 LSQ: 86 IQ: 96, IPC: 2.1960
TH2 ROB: 4 LSQ: 3 IQ: 0, IPC: 0.0000
TH3 ROB: 4 LSQ: 2 IQ: 0, IPC: 0.0000
EPOCH ENDS
EPOCH STARTS
TH0 ROB: 4 LSQ: 4 IQ: 0 IPC: 0.0000
TH1 ROB: 105 LSQ: 86 IQ: 96, IPC: 2.1960
TH2 ROB: 4 LSQ: 3 IQ: 0, IPC: 0.0000
TH3 ROB: 4 LSQ: 2 IQ: 0, IPC: 0.0000
EPOCH ENDS
EPOCH STARTS
TH0 ROB: 4 LSQ: 4 IQ: 0 IPC: 0.0000
TH1 ROB: 105 LSQ: 86 IQ: 96, IPC: 2.1960
TH2 ROB: 4 LSQ: 3 IQ: 0, IPC: 0.0000
TH3 ROB: 4 LSQ: 2 IQ: 0, IPC: 0.0000
EPOCH ENDS
EPOCH STARTS
TH0 ROB: 4 LSQ: 4 IQ: 0 IPC: 0.0000
TH1 ROB: 105 LSQ: 87 IQ: 96, IPC: 2.1960
TH2 ROB: 4 LSQ: 3 IQ: 0, IPC: 0.0000
TH3 ROB: 4 LSQ: 2 IQ: 0, IPC: 0.0000
EPOCH ENDS
EPOCH STARTS
TH0 ROB: 4 LSQ: 4 IQ: 0 IPC: 0.0000
TH1 ROB: 105 LSQ: 88 IQ: 96, IPC: 2.1960
TH2 ROB: 4 LSQ: 3 IQ: 0, IPC: 0.0000
TH3 ROB: 4 LSQ: 2 IQ: 0, IPC: 0.0000
EPOCH ENDS
EPOCH STARTS
TH0 ROB: 4 LSQ: 4 IQ: 0 IPC: 0.0000
TH1 ROB: 104 LSQ: 85 IQ: 96, IPC: 2.1960
TH2 ROB: 4 LSQ: 3 IQ: 0, IPC: 0.0000
TH3 ROB: 4 LSQ: 2 IQ: 0, IPC: 0.0000
EPOCH ENDS
EPOCH STARTS
TH0 ROB: 4 LSQ: 4 IQ: 0 IPC: 0.0000
TH1 ROB: 104 LSQ: 85 IQ: 96, IPC: 2.1960
TH2 ROB: 4 LSQ: 3 IQ: 0, IPC: 0.0000
TH3 ROB: 4 LSQ: 2 IQ: 0, IPC: 0.0000
EPOCH ENDS
EPOCH STARTS
TH0 ROB: 4 LSQ: 4 IQ: 0 IPC: 0.0000
TH1 ROB: 105 LSQ: 86 IQ: 96, IPC: 2.1960
TH2 ROB: 4 LSQ: 3 IQ: 0, IPC: 0.0000
TH3 ROB: 4 LSQ: 2 IQ: 0, IPC: 0.0000
EPOCH ENDS
[...]
Thread_3_cpred_bimod.retstack_pops            0 # total number of address popped off of ret-addr stack
Thread_3_cpred_bimod.used_ras.PP            0 # total number of RAS predictions used
Thread_3_cpred_bimod.ras_hits.PP            0 # total number of RAS hits
Thread_3_cpred_bimod.ras_rate.PP <error: divide by zero> # RAS prediction rate (i.e., RAS hits/used RAS)
il1.accesses              606460310 # total number of accesses
il1.hits                  606460208 # total number of hits
il1.misses                      102 # total number of misses
il1.replacements                102 # total number of replacements
il1.writebacks                    0 # total number of writebacks
il1.invalidations                 0 # total number of invalidations
il1.miss_rate                0.0000 # miss rate (i.e., misses/ref)
il1.repl_rate                0.0000 # replacement rate (i.e., repls/ref)
il1.wb_rate                  0.0000 # writeback rate (i.e., wrbks/ref)
il1.inv_rate                 0.0000 # invalidation rate (i.e., invs/ref)
dl1.accesses              299045947 # total number of accesses
dl1.hits                  289475667 # total number of hits
dl1.misses                  9570280 # total number of misses
dl1.replacements            9570280 # total number of replacements
dl1.writebacks              9570219 # total number of writebacks
dl1.invalidations                 0 # total number of invalidations
dl1.miss_rate                0.0320 # miss rate (i.e., misses/ref)
dl1.repl_rate                0.0320 # replacement rate (i.e., repls/ref)
dl1.wb_rate                  0.0320 # writeback rate (i.e., wrbks/ref)
dl1.inv_rate                 0.0000 # invalidation rate (i.e., invs/ref)
ul2.accesses               19140601 # total number of accesses
ul2.hits                   14354161 # total number of hits
ul2.misses                  4786440 # total number of misses
ul2.replacements            4786440 # total number of replacements
ul2.writebacks              4783380 # total number of writebacks
ul2.invalidations                 0 # total number of invalidations
ul2.miss_rate                0.2501 # miss rate (i.e., misses/ref)
ul2.repl_rate                0.2501 # replacement rate (i.e., repls/ref)
ul2.wb_rate                  0.2499 # writeback rate (i.e., wrbks/ref)
ul2.inv_rate                 0.0000 # invalidation rate (i.e., invs/ref)
itlb.accesses             606460310 # total number of accesses
itlb.hits                 606460307 # total number of hits
itlb.misses                       3 # total number of misses
itlb.replacements                 3 # total number of replacements
itlb.writebacks                   0 # total number of writebacks
itlb.invalidations                0 # total number of invalidations
itlb.miss_rate               0.0000 # miss rate (i.e., misses/ref)
itlb.repl_rate               0.0000 # replacement rate (i.e., repls/ref)
itlb.wb_rate                 0.0000 # writeback rate (i.e., wrbks/ref)
itlb.inv_rate                0.0000 # invalidation rate (i.e., invs/ref)
dtlb.accesses             393540633 # total number of accesses
dtlb.hits                 393465205 # total number of hits
dtlb.misses                   75428 # total number of misses
dtlb.replacements             75428 # total number of replacements
dtlb.writebacks                   0 # total number of writebacks
dtlb.invalidations                0 # total number of invalidations
dtlb.miss_rate               0.0002 # miss rate (i.e., misses/ref)
dtlb.repl_rate               0.0002 # replacement rate (i.e., repls/ref)
dtlb.wb_rate                 0.0000 # writeback rate (i.e., wrbks/ref)
dtlb.inv_rate                0.0000 # invalidation rate (i.e., invs/ref)
sim_invalid_addrs                 0 # total non-speculative bogus addresses seen (debug var)
ld_text_base           0x0120000000 # program text (code) segment base
mem->ld_text_size            401408 # program text (code) size in bytes
mem->ld_data_base      0x0140000000 # program initialized data segment base
mem->ld_data_size             70816 # program init'ed `.data' and uninit'ed `.bss' size in bytes
mem->ld_stack_base     0x011ff9b000 # program stack segment base (highest address in stack)
mem->ld_stack_size            16384 # program initial stack size
mem->ld_prog_entry     0x012000ff40 # program entry point (initial PC)
mem->ld_environ_base   0x011ff97000 # program environment base address address
mem->ld_target_big_endian            0 # target executable endian-ness, non-zero if big endian
mem_0.page_count               2851 # total number of pages allocated
mem_0.page_mem               22808k # total size of memory pages allocated
mem_0.ptab_misses              4991 # total first level page table misses
mem_0.ptab_accesses       152399428 # total page table accesses
mem_0.ptab_miss_rate         0.0000 # first level page table miss rate
ld_text_base           0x0120000000 # program text (code) segment base
mem->ld_text_size            352256 # program text (code) size in bytes
mem->ld_data_base      0x0140000000 # program initialized data segment base
mem->ld_data_size            121360 # program init'ed `.data' and uninit'ed `.bss' size in bytes
mem->ld_stack_base     0x011ff9b000 # program stack segment base (highest address in stack)
mem->ld_stack_size            16384 # program initial stack size
mem->ld_prog_entry     0x0120000300 # program entry point (initial PC)
mem->ld_environ_base   0x011ff97000 # program environment base address address
mem->ld_target_big_endian            0 # target executable endian-ness, non-zero if big endian
mem_0.page_count              40213 # total number of pages allocated
mem_0.page_mem               22808k # total size of memory pages allocated
mem_0.ptab_misses             46314 # total first level page table misses
mem_0.ptab_accesses      2180531956 # total page table accesses
mem_0.ptab_miss_rate         0.0000 # first level page table miss rate
ld_text_base           0x0120000000 # program text (code) segment base
mem->ld_text_size           2285568 # program text (code) size in bytes
mem->ld_data_base      0x0140000000 # program initialized data segment base
mem->ld_data_size            152368 # program init'ed `.data' and uninit'ed `.bss' size in bytes
mem->ld_stack_base     0x011ff9b000 # program stack segment base (highest address in stack)
mem->ld_stack_size            16384 # program initial stack size
mem->ld_prog_entry     0x01200b9a00 # program entry point (initial PC)
mem->ld_environ_base   0x011ff97000 # program environment base address address
mem->ld_target_big_endian            0 # target executable endian-ness, non-zero if big endian
mem_0.page_count                300 # total number of pages allocated
mem_0.page_mem               22808k # total size of memory pages allocated
mem_0.ptab_misses               359 # total first level page table misses
mem_0.ptab_accesses      5601451508 # total page table accesses
mem_0.ptab_miss_rate         0.0000 # first level page table miss rate
ld_text_base           0x0120000000 # program text (code) segment base
mem->ld_text_size            507904 # program text (code) size in bytes
mem->ld_data_base      0x0140000000 # program initialized data segment base
mem->ld_data_size        1172354816 # program init'ed `.data' and uninit'ed `.bss' size in bytes
mem->ld_stack_base     0x011ff9b000 # program stack segment base (highest address in stack)
mem->ld_stack_size            16384 # program initial stack size
mem->ld_prog_entry     0x0120000300 # program entry point (initial PC)
mem->ld_environ_base   0x011ff97000 # program environment base address address
mem->ld_target_big_endian            0 # target executable endian-ness, non-zero if big endian
mem_0.page_count               2642 # total number of pages allocated
mem_0.page_mem               22808k # total size of memory pages allocated
mem_0.ptab_misses              2686 # total first level page table misses
mem_0.ptab_accesses       109540796 # total page table accesses
mem_0.ptab_miss_rate         0.0000 # first level page table miss rate
rename_power           170831330.8521 # total power usage of rename unit
bpred_power            1130781596.2667 # total power usage of bpred unit
window_power           3569047442.0555 # total power usage of instruction window
lsq_power              1992927240.4008 # total power usage of load/store queue
regfile_power          893118024.3201 # total power usage of arch. regfile
icache_power           1058450497.7872 # total power usage of icache
dcache_power           2311943843.8834 # total power usage of dcache
dcache2_power          1300033981.9295 # total power usage of dcache2
alu_power              4735293863.5147 # total power usage of alu
falu_power             3570261239.8660 # total power usage of falu
resultbus_power        2253231538.7770 # total power usage of resultbus
clock_power            7621587330.2502 # total power usage of clock
avg_rename_power             0.6833 # avg power usage of rename unit
avg_bpred_power              4.5231 # avg power usage of bpred unit
avg_window_power            14.2762 # avg power usage of instruction window
avg_lsq_power                7.9717 # avg power usage of lsq
avg_regfile_power            3.5725 # avg power usage of arch. regfile
avg_icache_power             4.2338 # avg power usage of icache
avg_dcache_power             9.2478 # avg power usage of dcache
avg_dcache2_power            5.2001 # avg power usage of dcache2
avg_alu_power               18.9412 # avg power usage of alu
avg_falu_power              14.2810 # avg power usage of falu
avg_resultbus_power          9.0129 # avg power usage of resultbus
avg_clock_power             30.4863 # avg power usage of clock
fetch_stage_power      2189232094.0540 # total power usage of fetch stage
dispatch_stage_power   170831330.8521 # total power usage of dispatch stage
issue_stage_power      16162477910.5610 # total power usage of issue stage
avg_fetch_power              8.7569 # average power of fetch unit per cycle
avg_dispatch_power           0.6833 # average power of dispatch unit per cycle
avg_issue_power             64.6499 # average power of issue unit per cycle
total_power            27037246690.0374 # total power per cycle
avg_total_power_cycle      108.1490 # average total power per cycle
avg_total_power_cycle_nofp_nod2      88.6678 # average total power per cycle
avg_total_power_insn        44.5821 # average total power per insn
avg_total_power_insn_nofp_nod2      36.5514 # average total power per insn
rename_power_cc1       170830719.2760 # total power usage of rename unit_cc1
bpred_power_cc1        449057016.3142 # total power usage of bpred unit_cc1
window_power_cc1       3941697012.6367 # total power usage of instruction window_cc1
lsq_power_cc1          1687497151.2573 # total power usage of lsq_cc1
regfile_power_cc1      837366549.2724 # total power usage of arch. regfile_cc1
icache_power_cc1       1058440865.8878 # total power usage of icache_cc1
dcache_power_cc1       1482327099.8493 # total power usage of dcache_cc1
dcache2_power_cc1      49767268.9484 # total power usage of dcache2_cc1
alu_power_cc1          1165037562.4076 # total power usage of alu_cc1
resultbus_power_cc1    2164105751.0220 # total power usage of resultbus_cc1
clock_power_cc1        5432825236.3184 # total power usage of clock_cc1
avg_rename_power_cc1         0.6833 # avg power usage of rename unit_cc1
avg_bpred_power_cc1          1.7962 # avg power usage of bpred unit_cc1
avg_window_power_cc1        15.7668 # avg power usage of instruction window_cc1
avg_lsq_power_cc1            6.7500 # avg power usage of lsq_cc1
avg_regfile_power_cc1        3.3495 # avg power usage of arch. regfile_cc1
avg_icache_power_cc1         4.2338 # avg power usage of icache_cc1
avg_dcache_power_cc1         5.9293 # avg power usage of dcache_cc1
avg_dcache2_power_cc1        0.1991 # avg power usage of dcache2_cc1
avg_alu_power_cc1            4.6602 # avg power usage of alu_cc1
avg_resultbus_power_cc1       8.6564 # avg power usage of resultbus_cc1
avg_clock_power_cc1         21.7313 # avg power usage of clock_cc1
fetch_stage_power_cc1  1507497882.2019 # total power usage of fetch stage_cc1
dispatch_stage_power_cc1 170830719.2760 # total power usage of dispatch stage_cc1
issue_stage_power_cc1  10490431846.1213 # total power usage of issue stage_cc1
avg_fetch_power_cc1          6.0300 # average power of fetch unit per cycle_cc1
avg_dispatch_power_cc1       0.6833 # average power of dispatch unit per cycle_cc1
avg_issue_power_cc1         41.9617 # average power of issue unit per cycle_cc1
total_power_cycle_cc1  18438952233.1901 # total power per cycle_cc1
avg_total_power_cycle_cc1      73.7558 # average total power per cycle_cc1
avg_total_power_insn_cc1      30.4042 # average total power per insn_cc1
rename_power_cc2       103602406.6537 # total power usage of rename unit_cc2
bpred_power_cc2        224528752.4059 # total power usage of bpred unit_cc2
window_power_cc2       3872795972.7130 # total power usage of instruction window_cc2
lsq_power_cc2          872637338.5270 # total power usage of lsq_cc2
regfile_power_cc2      140753384.8767 # total power usage of arch. regfile_cc2
icache_power_cc2       1058440865.8878 # total power usage of icache_cc2
dcache_power_cc2       1382754874.6076 # total power usage of dcache_cc2
dcache2_power_cc2      49766863.3378 # total power usage of dcache2_cc2
alu_power_cc2          700971349.7178 # total power usage of alu_cc2
resultbus_power_cc2    1656723116.9750 # total power usage of resultbus_cc2
clock_power_cc2        4211409558.3817 # total power usage of clock_cc2
avg_rename_power_cc2         0.4144 # avg power usage of rename unit_cc2
avg_bpred_power_cc2          0.8981 # avg power usage of bpred unit_cc2
avg_window_power_cc2        15.4912 # avg power usage of instruction window_cc2
avg_lsq_power_cc2            3.4905 # avg power usage of instruction lsq_cc2
avg_regfile_power_cc2        0.5630 # avg power usage of arch. regfile_cc2
avg_icache_power_cc2         4.2338 # avg power usage of icache_cc2
avg_dcache_power_cc2         5.5310 # avg power usage of dcache_cc2
avg_dcache2_power_cc2        0.1991 # avg power usage of dcache2_cc2
avg_alu_power_cc2            2.8039 # avg power usage of alu_cc2
avg_resultbus_power_cc2       6.6269 # avg power usage of resultbus_cc2
avg_clock_power_cc2         16.8456 # avg power usage of clock_cc2
fetch_stage_power_cc2  1282969618.2937 # total power usage of fetch stage_cc2
dispatch_stage_power_cc2 103602406.6537 # total power usage of dispatch stage_cc2
issue_stage_power_cc2  8535649515.8782 # total power usage of issue stage_cc2
avg_fetch_power_cc2          5.1319 # average power of fetch unit per cycle_cc2
avg_dispatch_power_cc2       0.4144 # average power of dispatch unit per cycle_cc2
avg_issue_power_cc2         34.1426 # average power of issue unit per cycle_cc2
total_power_cycle_cc2  14274384484.0840 # total power per cycle_cc2
avg_total_power_cycle_cc2      57.0975 # average total power per cycle_cc2
avg_total_power_insn_cc2      23.5372 # average total power per insn_cc2
rename_power_cc3       103602467.8113 # total power usage of rename unit_cc3
bpred_power_cc3        292701212.5292 # total power usage of bpred unit_cc3
window_power_cc3       3872795993.1688 # total power usage of instruction window_cc3
lsq_power_cc3          903180242.2226 # total power usage of lsq_cc3
regfile_power_cc3      141181227.7146 # total power usage of arch. regfile_cc3
icache_power_cc3       1058441829.0777 # total power usage of icache_cc3
dcache_power_cc3       1470141654.4408 # total power usage of dcache_cc3
dcache2_power_cc3      174793552.3459 # total power usage of dcache2_cc3
alu_power_cc3          1057996985.2226 # total power usage of alu_cc3
resultbus_power_cc3    1656723192.6836 # total power usage of resultbus_cc3
clock_power_cc3        4429309881.7789 # total power usage of clock_cc3
avg_rename_power_cc3         0.4144 # avg power usage of rename unit_cc3
avg_bpred_power_cc3          1.1708 # avg power usage of bpred unit_cc3
avg_window_power_cc3        15.4912 # avg power usage of instruction window_cc3
avg_lsq_power_cc3            3.6127 # avg power usage of instruction lsq_cc3
avg_regfile_power_cc3        0.5647 # avg power usage of arch. regfile_cc3
avg_icache_power_cc3         4.2338 # avg power usage of icache_cc3
avg_dcache_power_cc3         5.8806 # avg power usage of dcache_cc3
avg_dcache2_power_cc3        0.6992 # avg power usage of dcache2_cc3
avg_alu_power_cc3            4.2320 # avg power usage of alu_cc3
avg_resultbus_power_cc3       6.6269 # avg power usage of resultbus_cc3
avg_clock_power_cc3         17.7172 # avg power usage of clock_cc3
fetch_stage_power_cc3  1351143041.6068 # total power usage of fetch stage_cc3
dispatch_stage_power_cc3 103602467.8113 # total power usage of dispatch stage_cc3
issue_stage_power_cc3  9135631620.0843 # total power usage of issue stage_cc3
avg_fetch_power_cc3          5.4046 # average power of fetch unit per cycle_cc3
avg_dispatch_power_cc3       0.4144 # average power of dispatch unit per cycle_cc3
avg_issue_power_cc3         36.5425 # average power of issue unit per cycle_cc3
total_power_cycle_cc3  15160868238.9959 # total power per cycle_cc3
avg_total_power_cycle_cc3      60.6435 # average total power per cycle_cc3
avg_total_power_insn_cc3      24.9989 # average total power per insn_cc3
total_rename_access       606460218 # total number accesses of rename unit
total_bpred_access         99280335 # total number accesses of bpred unit
total_window_access      2696172053 # total number accesses of instruction window
total_lsq_access          393540650 # total number accesses of load/store queue
total_regfile_access      502393861 # total number accesses of arch. regfile
total_icache_access       606460654 # total number accesses of icache
total_dcache_access       299045947 # total number accesses of dcache
total_dcache2_access       19140601 # total number accesses of dcache2
total_alu_access          601674568 # total number accesses of alu
total_resultbus_access    767942900 # total number accesses of resultbus
avg_rename_access            2.4258 # avg number accesses of rename unit
avg_bpred_access             0.3971 # avg number accesses of bpred unit
avg_window_access           10.7847 # avg number accesses of instruction window
avg_lsq_access               1.5742 # avg number accesses of lsq
avg_regfile_access           2.0096 # avg number accesses of arch. regfile
avg_icache_access            2.4258 # avg number accesses of icache
avg_dcache_access            1.1962 # avg number accesses of dcache
avg_dcache2_access           0.0766 # avg number accesses of dcache2
avg_alu_access               2.4067 # avg number accesses of alu
avg_resultbus_access         3.0718 # avg number accesses of resultbus
max_rename_access                 4 # max number accesses of rename unit
max_bpred_access                  4 # max number accesses of bpred unit
max_window_access                69 # max number accesses of instruction window
max_lsq_access                    4 # max number accesses of load/store queue
max_regfile_access               10 # max number accesses of arch. regfile
max_icache_access                 4 # max number accesses of icache
max_dcache_access                 4 # max number accesses of dcache
max_dcache2_access                4 # max number accesses of dcache2
max_alu_access                    4 # max number accesses of alu
max_resultbus_access             61 # max number accesses of resultbus
max_cycle_power_cc1        270.0366 # maximum cycle power usage of cc1
max_cycle_power_cc2        247.3414 # maximum cycle power usage of cc2
max_cycle_power_cc3        249.7990 # maximum cycle power usage of cc3


******* SMT STATS *******
THROUGHPUT IPC: 2.4258

TH0 IPC: 0.0000

TH1 IPC: 0.5359

TH2 IPC: 1.8899

TH3 IPC: 0.0000

