sim-outorder: SimpleScalar/Alpha Tool Set version 3.0 of August, 2003.
Copyright (c) 1994-2003 by Todd M. Austin, Ph.D. and SimpleScalar, LLC.
All Rights Reserved. This version of SimpleScalar is licensed for academic
non-commercial use.  No portion of this work may be used by any commercial
entity, or for any commercial purpose, without the prior written permission
of SimpleScalar, LLC (info@simplescalar.com).


Processor Parameters:
Issue Width: 4
Window Size: 224
Number of Virtual Registers: 32
Number of Physical Registers: 256
Datapath Width: 64
Total Power Consumption: 110.149
Branch Predictor Power Consumption: 4.52313  (4.18%)
 branch target buffer power (W): 4.16837
 local predict power (W): 0.0879711
 global predict power (W): 0.0996078
 chooser power (W): 0.0702439
 RAS power (W): 0.0969383
Rename Logic Power Consumption: 0.683325  (0.632%)
 Instruction Decode Power (W): 0.0159915
 RAT decode_power (W): 0.113514
 RAT wordline_power (W): 0.0493708
 RAT bitline_power (W): 0.493541
 DCL Comparators (W): 0.0109075
Instruction Window Power Consumption: 14.2762  (13.2%)
 tagdrive (W): 0.827064
 tagmatch (W): 0.360565
 Selection Logic (W): 0.0885831
 decode_power (W): 1.16922
 wordline_power (W): 0.0844643
 bitline_power (W): 11.7463
Load/Store Queue Power Consumption: 7.97171  (7.37%)
 tagdrive (W): 3.75392
 tagmatch (W): 1.61238
 decode_power (W): 0.181222
 wordline_power (W): 0.0150119
 bitline_power (W): 2.40917
Arch. Register File Power Consumption: 3.57247  (3.3%)
 decode_power (W): 0.113514
 wordline_power (W): 0.0844643
 bitline_power (W): 3.37449
Result Bus Power Consumption: 9.01293  (8.33%)
Total Clock Power: 30.4863  (28.2%)
Int ALU Power: 4.66013  (4.31%)
FP ALU Power: 14.281  (13.2%)
Instruction Cache Power Consumption: 3.97049  (3.67%)
 decode_power (W): 1.67268
 wordline_power (W): 0.028656
 bitline_power (W): 1.5122
 senseamp_power (W): 0.096
 tagarray_power (W): 0.660946
Itlb_power (W): 0.263317 (0.243%)
Data Cache Power Consumption: 8.34726  (7.72%)
 decode_power (W): 1.44978
 wordline_power (W): 0.196735
 bitline_power (W): 4.58765
 senseamp_power (W): 0.768
 tagarray_power (W): 1.34509
Dtlb_power (W): 0.900515 (0.833%)
Level 2 Cache Power Consumption: 5.20014 (4.81%)
 decode_power (W): 0.41817
 wordline_power (W): 0.0430878
 bitline_power (W): 3.0244
 senseamp_power (W): 0.192
 tagarray_power (W): 1.52247
sim-main: initalizing context 0:bwavesNS.1.arg
args: 0:./bwaves.base.alpha 
sim: loading binary...
sim: loading ./bwaves.base.alpha
sim-main: initalizing context 1:sphinx3NS.1.arg
args: 0:./sphinx3.base.alpha 1:./beams.dat 2:. 3:./args.an4 
sim: loading binary...
sim: loading ./sphinx3.base.alpha
sim-main: initalizing context 2:zeusmpNS.1.arg
args: 0:./zeusmp.base.alpha 
sim: loading binary...
sim: loading ./zeusmp.base.alpha
sim-main: initalizing context 3:dealIINS.1.arg
args: 0:./dealII.base.alpha 1:23 2:2>> 3:./dealII.err 
sim: loading binary...
sim: loading ./dealII.base.alpha
warning: section `.comment' ignored...
sim: command line: ../m-sim_v2.0/sim-outorder bwavesNS.1.arg sphinx3NS.1.arg zeusmpNS.1.arg dealIINS.1.arg 

sim: simulation started @ Mon Aug  8 20:36:47 2022, options follow:

sim-outorder: This simulator implements a very detailed out-of-order issue
superscalar processor with a two-level memory system and speculative
execution support.  This simulator is a performance simulator, tracking the
latency of all pipeline operations.

# -config                     # load configuration from a file
# -dumpconfig                 # dump configuration to a file
# -h                    false # print help message    
# -v                    false # verbose operation     
# -d                    false # enable debug message  
# -i                    false # start in Dlite debugger
-seed                       1 # random number generator seed (0 for timer seed)
# -q                    false # initialize and terminate immediately
# -redir:sim           <null> # redirect simulator output to file (non-interactive only)
# -redir:prog          <null> # redirect simulated program output to file
-nice                       0 # simulator scheduling priority
-max:inst           250000000 # maximum number of inst's to execute
-fastfwd             10000000 # number of insts skipped before timing starts
# -ptrace              <null> # generate pipetrace, i.e., <fname|stdout|stderr> <range>
-fetch:speed                1 # speed of front-end of machine relative to execution core
-bpred                  bimod # branch predictor type {nottaken|taken|perfect|bimod|2lev|comb}
-bpred:bimod     2048 # bimodal predictor config (<table size>)
-bpred:2lev      1 1024 8 0 # 2-level predictor config (<l1size> <l2size> <hist_size> <xor>)
-bpred:comb      1024 # combining predictor config (<meta_table_size>)
-bpred:ras                  8 # return address stack size (0 for no return stack)
-bpred:btb       512 4 # BTB config (<num_sets> <associativity>)
# -bpred:spec_update       <null> # speculative predictors update in {ID|WB} (default non-spec)
-cpred                  bimod # cache load-latency predictor type {nottaken|taken|perfect|bimod|2lev|comb}
-cpred:bimod     2048 # cache load-latency bimodal predictor config (<table size>)
-cpred:2lev      1 1024 8 0 # cache load-latency 2-level predictor config (<l1size> <l2size> <hist_size> <xor>)
-cpred:comb      1024 # cache load-latency combining predictor config (<meta_table_size>)
-cpred:ras                  0 # return address stack size (0 for no return stack)
-cpred:btb       512 4 # cache load-latency BTB config (<num_sets> <associativity>)
-decode:width               4 # instruction decode B/W (insts/cycle)
-issue:width                4 # instruction issue B/W (insts/cycle)
-issue:inorder          false # run pipeline with in-order issue
-issue:wrongpath         true # issue instructions down wrong execution paths
-commit:width               4 # instruction commit B/W (insts/cycle)
-rob:size                 224 # reorder buffer (ROB) size
-fetch:policy |icount|round_robin|       icount # fetch policy          
-recovery:model        squash # Alpha squash recovery or perfect predition: |squash|perfect|
-iq:size                   96 # issue queue (IQ) size 
-iq:issue_exec_delay            1 # minimum cycles between issue and execution
-fetch_rename_delay            4 # number of cycles between fetch and rename stages
-rename_dispatch_delay            1 # number cycles between rename and dispatch stages
-rf:size                  256 # register file (RF) size for each the INT and FP physical register file)
-lsq:size                 128 # load/store queue (LSQ) size
-cache:dl1       dl1:256:32:4:l # l1 data cache config, i.e., {<config>|none}
-cache:dl1lat               1 # l1 data cache hit latency (in cycles)
-cache:dl2       ul2:1024:64:8:l # l2 data cache config, i.e., {<config>|none}
-cache:dl2lat               6 # l2 data cache hit latency (in cycles)
-cache:il1       il1:512:32:2:l # l1 inst cache config, i.e., {<config>|dl1|dl2|none}
-cache:il1lat               1 # l1 instruction cache hit latency (in cycles)
-cache:il2                dl2 # l2 instruction cache config, i.e., {<config>|dl2|none}
-cache:il2lat               6 # l2 instruction cache hit latency (in cycles)
-cache:flush            false # flush caches on system calls
-cache:icompress        false # convert 64-bit inst addresses to 32-bit inst equivalents
-mem:lat         100 2 # memory access latency (<first_chunk> <inter_chunk>)
-mem:width                  8 # memory access bus width (in bytes)
-tlb:itlb        itlb:16:4096:4:l # instruction TLB config, i.e., {<config>|none}
-tlb:dtlb        dtlb:32:4096:4:l # data TLB config, i.e., {<config>|none}
-tlb:lat                   30 # inst/data TLB miss latency (in cycles)
-res:ialu                   4 # total number of integer ALU's available
-res:imult                  1 # total number of integer multiplier/dividers available
-res:memport                2 # total number of memory system ports available (to CPU)
-res:fpalu                  4 # total number of floating point ALU's available
-res:fpmult                 1 # total number of floating point multiplier/dividers available
# -pcstat              <null> # profile stat(s) against text addr's (mult uses ok)
-power:print_stats         true # print power statistics collected by wattch?

  Pipetrace range arguments are formatted as follows:

    {{@|#}<start>}:{{@|#|+}<end>}

  Both ends of the range are optional, if neither are specified, the entire
  execution is traced.  Ranges that start with a `@' designate an address
  range to be traced, those that start with an `#' designate a cycle count
  range.  All other range values represent an instruction count range.  The
  second argument, if specified with a `+', indicates a value relative
  to the first argument, e.g., 1000:+100 == 1000:1100.  Program symbols may
  be used in all contexts.

    Examples:   -ptrace FOO.trc #0:#1000
                -ptrace BAR.trc @2000:
                -ptrace BLAH.trc :1500
                -ptrace UXXE.trc :
                -ptrace FOOBAR.trc @main:+278

  Branch predictor configuration examples for 2-level predictor:
    Configurations:   N, M, W, X
      N   # entries in first level (# of shift register(s))
      W   width of shift register(s)
      M   # entries in 2nd level (# of counters, or other FSM)
      X   (yes-1/no-0) xor history and address for 2nd level index
    Sample predictors:
      GAg     : 1, W, 2^W, 0
      GAp     : 1, W, M (M > 2^W), 0
      PAg     : N, W, 2^W, 0
      PAp     : N, W, M (M == 2^(N+W)), 0
      gshare  : 1, W, 2^W, 1
  Predictor `comb' combines a bimodal and a 2-level predictor.

  The cache config parameter <config> has the following format:

    <name>:<nsets>:<bsize>:<assoc>:<repl>

    <name>   - name of the cache being defined
    <nsets>  - number of sets in the cache
    <bsize>  - block size of the cache
    <assoc>  - associativity of the cache
    <repl>   - block replacement strategy, 'l'-LRU, 'f'-FIFO, 'r'-random

    Examples:   -cache:dl1 dl1:4096:32:1:l
                -dtlb dtlb:128:4096:32:r

  Cache levels can be unified by pointing a level of the instruction cache
  hierarchy at the data cache hiearchy using the "dl1" and "dl2" cache
  configuration arguments.  Most sensible combinations are supported, e.g.,

    A unified l2 cache (il2 is pointed at dl2):
      -cache:il1 il1:128:64:1:l -cache:il2 dl2
      -cache:dl1 dl1:256:32:1:l -cache:dl2 ul2:1024:64:2:l

    Or, a fully unified cache hierarchy (il1 pointed at dl1):
      -cache:il1 dl1
      -cache:dl1 ul1:256:32:1:l -cache:dl2 ul2:1024:64:2:l



sim: ** fast forwarding insts **
warning: partially supported sigaction() call...
sim: ** starting performance simulation **
EPOCH STARTS
TH0 ROB: 9 LSQ: 3 IQ: 5 IPC: 0.4646
TH1 ROB: 98 LSQ: 12 IQ: 88, IPC: 0.4499
TH2 ROB: 8 LSQ: 5 IQ: 2, IPC: 1.1040
TH3 ROB: 8 LSQ: 4 IQ: 1, IPC: 0.5850
EPOCH ENDS
EPOCH STARTS
TH0 ROB: 4 LSQ: 0 IQ: 0 IPC: 0.4877
TH1 ROB: 4 LSQ: 1 IQ: 0, IPC: 0.4647
TH2 ROB: 4 LSQ: 4 IQ: 0, IPC: 0.8873
TH3 ROB: 105 LSQ: 63 IQ: 96, IPC: 0.7698
EPOCH ENDS
EPOCH STARTS
TH0 ROB: 4 LSQ: 0 IQ: 0 IPC: 0.3251
TH1 ROB: 4 LSQ: 1 IQ: 0, IPC: 0.3098
TH2 ROB: 4 LSQ: 4 IQ: 0, IPC: 0.5915
TH3 ROB: 105 LSQ: 63 IQ: 96, IPC: 1.3465
EPOCH ENDS
EPOCH STARTS
TH0 ROB: 4 LSQ: 0 IQ: 0 IPC: 0.2438
TH1 ROB: 4 LSQ: 1 IQ: 0, IPC: 0.2323
TH2 ROB: 4 LSQ: 4 IQ: 0, IPC: 0.4436
TH3 ROB: 105 LSQ: 63 IQ: 96, IPC: 1.6349
EPOCH ENDS
EPOCH STARTS
TH0 ROB: 4 LSQ: 0 IQ: 0 IPC: 0.1951
TH1 ROB: 4 LSQ: 1 IQ: 0, IPC: 0.1859
TH2 ROB: 4 LSQ: 4 IQ: 0, IPC: 0.3549
TH3 ROB: 105 LSQ: 63 IQ: 96, IPC: 1.8079
EPOCH ENDS
EPOCH STARTS
TH0 ROB: 4 LSQ: 0 IQ: 0 IPC: 0.1626
TH1 ROB: 4 LSQ: 1 IQ: 0, IPC: 0.1549
TH2 ROB: 4 LSQ: 4 IQ: 0, IPC: 0.2958
TH3 ROB: 105 LSQ: 63 IQ: 96, IPC: 1.9233
EPOCH ENDS
EPOCH STARTS
TH0 ROB: 4 LSQ: 0 IQ: 0 IPC: 0.1393
TH1 ROB: 4 LSQ: 1 IQ: 0, IPC: 0.1328
TH2 ROB: 4 LSQ: 4 IQ: 0, IPC: 0.2535
TH3 ROB: 105 LSQ: 63 IQ: 96, IPC: 2.0057
EPOCH ENDS
EPOCH STARTS
TH0 ROB: 4 LSQ: 0 IQ: 0 IPC: 0.1219
TH1 ROB: 4 LSQ: 1 IQ: 0, IPC: 0.1162
TH2 ROB: 4 LSQ: 4 IQ: 0, IPC: 0.2218
TH3 ROB: 105 LSQ: 63 IQ: 96, IPC: 2.0674
EPOCH ENDS
EPOCH STARTS
TH0 ROB: 4 LSQ: 0 IQ: 0 IPC: 0.1084
TH1 ROB: 4 LSQ: 1 IQ: 0, IPC: 0.1033
TH2 ROB: 4 LSQ: 4 IQ: 0, IPC: 0.1972
TH3 ROB: 105 LSQ: 63 IQ: 96, IPC: 2.1155
EPOCH ENDS
EPOCH STARTS
TH0 ROB: 4 LSQ: 0 IQ: 0 IPC: 0.0975
TH1 ROB: 4 LSQ: 1 IQ: 0, IPC: 0.0929
TH2 ROB: 4 LSQ: 4 IQ: 0, IPC: 0.1775
TH3 ROB: 105 LSQ: 63 IQ: 96, IPC: 2.1540
EPOCH ENDS
EPOCH STARTS
TH0 ROB: 4 LSQ: 0 IQ: 0 IPC: 0.0887
TH1 ROB: 4 LSQ: 1 IQ: 0, IPC: 0.0845
TH2 ROB: 4 LSQ: 4 IQ: 0, IPC: 0.1613
TH3 ROB: 105 LSQ: 63 IQ: 96, IPC: 2.1854
EPOCH ENDS
EPOCH STARTS
TH0 ROB: 4 LSQ: 0 IQ: 0 IPC: 0.0813
TH1 ROB: 4 LSQ: 1 IQ: 0, IPC: 0.0774
TH2 ROB: 4 LSQ: 4 IQ: 0, IPC: 0.1479
TH3 ROB: 105 LSQ: 63 IQ: 96, IPC: 2.2116
EPOCH ENDS
EPOCH STARTS
TH0 ROB: 4 LSQ: 0 IQ: 0 IPC: 0.0750
TH1 ROB: 4 LSQ: 1 IQ: 0, IPC: 0.0715
TH2 ROB: 4 LSQ: 4 IQ: 0, IPC: 0.1365
TH3 ROB: 105 LSQ: 63 IQ: 96, IPC: 2.2338
EPOCH ENDS
EPOCH STARTS
TH0 ROB: 4 LSQ: 0 IQ: 0 IPC: 0.0697
TH1 ROB: 4 LSQ: 1 IQ: 0, IPC: 0.0664
TH2 ROB: 4 LSQ: 4 IQ: 0, IPC: 0.1268
TH3 ROB: 105 LSQ: 63 IQ: 96, IPC: 2.2528
EPOCH ENDS
EPOCH STARTS
TH0 ROB: 4 LSQ: 0 IQ: 0 IPC: 0.0650
TH1 ROB: 4 LSQ: 1 IQ: 0, IPC: 0.0620
TH2 ROB: 4 LSQ: 4 IQ: 0, IPC: 0.1183
TH3 ROB: 105 LSQ: 63 IQ: 96, IPC: 2.2693
EPOCH ENDS
EPOCH STARTS
TH0 ROB: 4 LSQ: 0 IQ: 0 IPC: 0.0610
TH1 ROB: 4 LSQ: 1 IQ: 0, IPC: 0.0581
TH2 ROB: 4 LSQ: 4 IQ: 0, IPC: 0.1109
TH3 ROB: 105 LSQ: 63 IQ: 96, IPC: 2.2837
EPOCH ENDS
EPOCH STARTS
TH0 ROB: 4 LSQ: 0 IQ: 0 IPC: 0.0574
TH1 ROB: 4 LSQ: 1 IQ: 0, IPC: 0.0547
TH2 ROB: 4 LSQ: 4 IQ: 0, IPC: 0.1044
TH3 ROB: 105 LSQ: 63 IQ: 96, IPC: 2.2964
EPOCH ENDS
EPOCH STARTS
TH0 ROB: 4 LSQ: 0 IQ: 0 IPC: 0.0542
TH1 ROB: 4 LSQ: 1 IQ: 0, IPC: 0.0516
TH2 ROB: 4 LSQ: 4 IQ: 0, IPC: 0.0986
TH3 ROB: 105 LSQ: 63 IQ: 96, IPC: 2.3078
EPOCH ENDS
EPOCH STARTS
TH0 ROB: 4 LSQ: 0 IQ: 0 IPC: 0.0513
TH1 ROB: 4 LSQ: 1 IQ: 0, IPC: 0.0489
TH2 ROB: 4 LSQ: 4 IQ: 0, IPC: 0.0934
TH3 ROB: 105 LSQ: 63 IQ: 96, IPC: 2.3179
EPOCH ENDS
EPOCH STARTS
TH0 ROB: 4 LSQ: 0 IQ: 0 IPC: 0.0488
TH1 ROB: 4 LSQ: 1 IQ: 0, IPC: 0.0465
TH2 ROB: 4 LSQ: 4 IQ: 0, IPC: 0.0887
TH3 ROB: 105 LSQ: 63 IQ: 96, IPC: 2.3270
EPOCH ENDS
EPOCH STARTS
TH0 ROB: 4 LSQ: 0 IQ: 0 IPC: 0.0464
TH1 ROB: 4 LSQ: 1 IQ: 0, IPC: 0.0443
TH2 ROB: 4 LSQ: 4 IQ: 0, IPC: 0.0845
TH3 ROB: 105 LSQ: 63 IQ: 96, IPC: 2.3352
EPOCH ENDS
EPOCH STARTS
TH0 ROB: 4 LSQ: 0 IQ: 0 IPC: 0.0443
TH1 ROB: 4 LSQ: 1 IQ: 0, IPC: 0.0422
TH2 ROB: 4 LSQ: 4 IQ: 0, IPC: 0.0807
TH3 ROB: 105 LSQ: 63 IQ: 96, IPC: 2.3427
EPOCH ENDS
EPOCH STARTS
TH0 ROB: 4 LSQ: 0 IQ: 0 IPC: 0.0424
TH1 ROB: 4 LSQ: 1 IQ: 0, IPC: 0.0404
TH2 ROB: 4 LSQ: 4 IQ: 0, IPC: 0.0772
TH3 ROB: 105 LSQ: 63 IQ: 96, IPC: 2.3495
EPOCH ENDS
EPOCH STARTS
TH0 ROB: 4 LSQ: 0 IQ: 0 IPC: 0.0406
TH1 ROB: 4 LSQ: 1 IQ: 0, IPC: 0.0387
TH2 ROB: 4 LSQ: 4 IQ: 0, IPC: 0.0739
TH3 ROB: 105 LSQ: 63 IQ: 96, IPC: 2.3558
EPOCH ENDS
EPOCH STARTS
TH0 ROB: 4 LSQ: 0 IQ: 0 IPC: 0.0390
TH1 ROB: 4 LSQ: 1 IQ: 0, IPC: 0.0372
TH2 ROB: 4 LSQ: 4 IQ: 0, IPC: 0.0710
TH3 ROB: 105 LSQ: 63 IQ: 96, IPC: 2.3616
EPOCH ENDS
EPOCH STARTS
TH0 ROB: 4 LSQ: 0 IQ: 0 IPC: 0.0375
TH1 ROB: 4 LSQ: 1 IQ: 0, IPC: 0.0357
TH2 ROB: 4 LSQ: 4 IQ: 0, IPC: 0.0683
TH3 ROB: 105 LSQ: 63 IQ: 96, IPC: 2.3669
EPOCH ENDS
EPOCH STARTS
TH0 ROB: 4 LSQ: 0 IQ: 0 IPC: 0.0361
TH1 ROB: 4 LSQ: 1 IQ: 0, IPC: 0.0344
TH2 ROB: 4 LSQ: 4 IQ: 0, IPC: 0.0657
TH3 ROB: 105 LSQ: 63 IQ: 96, IPC: 2.3718
EPOCH ENDS
EPOCH STARTS
TH0 ROB: 4 LSQ: 0 IQ: 0 IPC: 0.0348
TH1 ROB: 4 LSQ: 1 IQ: 0, IPC: 0.0332
TH2 ROB: 4 LSQ: 4 IQ: 0, IPC: 0.0634
TH3 ROB: 105 LSQ: 63 IQ: 96, IPC: 2.3764
EPOCH ENDS
EPOCH STARTS
TH0 ROB: 4 LSQ: 0 IQ: 0 IPC: 0.0336
TH1 ROB: 4 LSQ: 1 IQ: 0, IPC: 0.0320
TH2 ROB: 4 LSQ: 4 IQ: 0, IPC: 0.0612
TH3 ROB: 105 LSQ: 63 IQ: 96, IPC: 2.3807
EPOCH ENDS
EPOCH STARTS
TH0 ROB: 4 LSQ: 0 IQ: 0 IPC: 0.0325
TH1 ROB: 4 LSQ: 1 IQ: 0, IPC: 0.0310
TH2 ROB: 4 LSQ: 4 IQ: 0, IPC: 0.0592
TH3 ROB: 105 LSQ: 63 IQ: 96, IPC: 2.3847
EPOCH ENDS
EPOCH STARTS
TH0 ROB: 4 LSQ: 0 IQ: 0 IPC: 0.0315
TH1 ROB: 4 LSQ: 1 IQ: 0, IPC: 0.0300
TH2 ROB: 4 LSQ: 4 IQ: 0, IPC: 0.0572
TH3 ROB: 105 LSQ: 63 IQ: 96, IPC: 2.3884
EPOCH ENDS
EPOCH STARTS
TH0 ROB: 4 LSQ: 0 IQ: 0 IPC: 0.0305
TH1 ROB: 4 LSQ: 1 IQ: 0, IPC: 0.0290
TH2 ROB: 4 LSQ: 4 IQ: 0, IPC: 0.0555
TH3 ROB: 105 LSQ: 63 IQ: 96, IPC: 2.3919
EPOCH ENDS
EPOCH STARTS
TH0 ROB: 4 LSQ: 0 IQ: 0 IPC: 0.0296
TH1 ROB: 4 LSQ: 1 IQ: 0, IPC: 0.0282
TH2 ROB: 4 LSQ: 4 IQ: 0, IPC: 0.0538
TH3 ROB: 105 LSQ: 63 IQ: 96, IPC: 2.3951
EPOCH ENDS
EPOCH STARTS
TH0 ROB: 4 LSQ: 0 IQ: 0 IPC: 0.0287
TH1 ROB: 4 LSQ: 1 IQ: 0, IPC: 0.0273
TH2 ROB: 4 LSQ: 4 IQ: 0, IPC: 0.0522
TH3 ROB: 105 LSQ: 63 IQ: 96, IPC: 2.3982
EPOCH ENDS
EPOCH STARTS
TH0 ROB: 4 LSQ: 0 IQ: 0 IPC: 0.0279
TH1 ROB: 4 LSQ: 1 IQ: 0, IPC: 0.0266
TH2 ROB: 4 LSQ: 4 IQ: 0, IPC: 0.0507
TH3 ROB: 105 LSQ: 63 IQ: 96, IPC: 2.4011
EPOCH ENDS
EPOCH STARTS
TH0 ROB: 4 LSQ: 0 IQ: 0 IPC: 0.0271
TH1 ROB: 4 LSQ: 1 IQ: 0, IPC: 0.0258
TH2 ROB: 4 LSQ: 4 IQ: 0, IPC: 0.0493
TH3 ROB: 105 LSQ: 63 IQ: 96, IPC: 2.4039
EPOCH ENDS
EPOCH STARTS
TH0 ROB: 4 LSQ: 0 IQ: 0 IPC: 0.0264
TH1 ROB: 4 LSQ: 1 IQ: 0, IPC: 0.0251
TH2 ROB: 4 LSQ: 4 IQ: 0, IPC: 0.0480
TH3 ROB: 105 LSQ: 63 IQ: 96, IPC: 2.4065
EPOCH ENDS
EPOCH STARTS
TH0 ROB: 4 LSQ: 0 IQ: 0 IPC: 0.0257
TH1 ROB: 4 LSQ: 1 IQ: 0, IPC: 0.0245
TH2 ROB: 4 LSQ: 4 IQ: 0, IPC: 0.0467
TH3 ROB: 105 LSQ: 63 IQ: 96, IPC: 2.4089
EPOCH ENDS
EPOCH STARTS
TH0 ROB: 4 LSQ: 0 IQ: 0 IPC: 0.0250
TH1 ROB: 4 LSQ: 1 IQ: 0, IPC: 0.0238
TH2 ROB: 4 LSQ: 4 IQ: 0, IPC: 0.0455
TH3 ROB: 105 LSQ: 63 IQ: 96, IPC: 2.4113
EPOCH ENDS
EPOCH STARTS
TH0 ROB: 4 LSQ: 0 IQ: 0 IPC: 0.0244
TH1 ROB: 4 LSQ: 1 IQ: 0, IPC: 0.0232
TH2 ROB: 4 LSQ: 4 IQ: 0, IPC: 0.0444
TH3 ROB: 105 LSQ: 63 IQ: 96, IPC: 2.4135
EPOCH ENDS
EPOCH STARTS
TH0 ROB: 4 LSQ: 0 IQ: 0 IPC: 0.0238
TH1 ROB: 4 LSQ: 1 IQ: 0, IPC: 0.0227
TH2 ROB: 4 LSQ: 4 IQ: 0, IPC: 0.0433
TH3 ROB: 105 LSQ: 63 IQ: 96, IPC: 2.4156
EPOCH ENDS
EPOCH STARTS
TH0 ROB: 4 LSQ: 0 IQ: 0 IPC: 0.0232
TH1 ROB: 4 LSQ: 1 IQ: 0, IPC: 0.0221
TH2 ROB: 4 LSQ: 4 IQ: 0, IPC: 0.0423
TH3 ROB: 105 LSQ: 63 IQ: 96, IPC: 2.4176
EPOCH ENDS
EPOCH STARTS
TH0 ROB: 4 LSQ: 0 IQ: 0 IPC: 0.0227
TH1 ROB: 4 LSQ: 1 IQ: 0, IPC: 0.0216
TH2 ROB: 4 LSQ: 4 IQ: 0, IPC: 0.0413
TH3 ROB: 105 LSQ: 63 IQ: 96, IPC: 2.4195
EPOCH ENDS
EPOCH STARTS
TH0 ROB: 4 LSQ: 0 IQ: 0 IPC: 0.0222
TH1 ROB: 4 LSQ: 1 IQ: 0, IPC: 0.0211
TH2 ROB: 4 LSQ: 4 IQ: 0, IPC: 0.0403
TH3 ROB: 105 LSQ: 63 IQ: 96, IPC: 2.4214
EPOCH ENDS
EPOCH STARTS
TH0 ROB: 4 LSQ: 0 IQ: 0 IPC: 0.0217
TH1 ROB: 4 LSQ: 1 IQ: 0, IPC: 0.0207
TH2 ROB: 4 LSQ: 4 IQ: 0, IPC: 0.0394
TH3 ROB: 105 LSQ: 63 IQ: 96, IPC: 2.4231
EPOCH ENDS
EPOCH STARTS
TH0 ROB: 4 LSQ: 0 IQ: 0 IPC: 0.0212
TH1 ROB: 4 LSQ: 1 IQ: 0, IPC: 0.0202
TH2 ROB: 4 LSQ: 4 IQ: 0, IPC: 0.0386
TH3 ROB: 105 LSQ: 63 IQ: 96, IPC: 2.4248
EPOCH ENDS
EPOCH STARTS
TH0 ROB: 4 LSQ: 0 IQ: 0 IPC: 0.0208
TH1 ROB: 4 LSQ: 1 IQ: 0, IPC: 0.0198
TH2 ROB: 4 LSQ: 4 IQ: 0, IPC: 0.0378
TH3 ROB: 105 LSQ: 63 IQ: 96, IPC: 2.4264
EPOCH ENDS
EPOCH STARTS
TH0 ROB: 4 LSQ: 0 IQ: 0 IPC: 0.0203
TH1 ROB: 4 LSQ: 1 IQ: 0, IPC: 0.0194
TH2 ROB: 4 LSQ: 4 IQ: 0, IPC: 0.0370
TH3 ROB: 105 LSQ: 63 IQ: 96, IPC: 2.4279
EPOCH ENDS
EPOCH STARTS
TH0 ROB: 4 LSQ: 0 IQ: 0 IPC: 0.0199
TH1 ROB: 4 LSQ: 1 IQ: 0, IPC: 0.0190
TH2 ROB: 4 LSQ: 4 IQ: 0, IPC: 0.0362
TH3 ROB: 105 LSQ: 63 IQ: 96, IPC: 2.4294
EPOCH ENDS
EPOCH STARTS
TH0 ROB: 4 LSQ: 0 IQ: 0 IPC: 0.0195
TH1 ROB: 4 LSQ: 1 IQ: 0, IPC: 0.0186
TH2 ROB: 4 LSQ: 4 IQ: 0, IPC: 0.0355
TH3 ROB: 105 LSQ: 63 IQ: 96, IPC: 2.4308
EPOCH ENDS
EPOCH STARTS
TH0 ROB: 4 LSQ: 0 IQ: 0 IPC: 0.0191
TH1 ROB: 4 LSQ: 1 IQ: 0, IPC: 0.0182
TH2 ROB: 4 LSQ: 4 IQ: 0, IPC: 0.0348
TH3 ROB: 105 LSQ: 63 IQ: 96, IPC: 2.4321
EPOCH ENDS
EPOCH STARTS
TH0 ROB: 4 LSQ: 0 IQ: 0 IPC: 0.0188
TH1 ROB: 4 LSQ: 1 IQ: 0, IPC: 0.0179
TH2 ROB: 4 LSQ: 4 IQ: 0, IPC: 0.0341
TH3 ROB: 105 LSQ: 63 IQ: 96, IPC: 2.4335
EPOCH ENDS
EPOCH STARTS
TH0 ROB: 4 LSQ: 0 IQ: 0 IPC: 0.0184
TH1 ROB: 4 LSQ: 1 IQ: 0, IPC: 0.0175
TH2 ROB: 4 LSQ: 4 IQ: 0, IPC: 0.0335
TH3 ROB: 105 LSQ: 63 IQ: 96, IPC: 2.4347
EPOCH ENDS
EPOCH STARTS
TH0 ROB: 4 LSQ: 0 IQ: 0 IPC: 0.0181
TH1 ROB: 4 LSQ: 1 IQ: 0, IPC: 0.0172
TH2 ROB: 4 LSQ: 4 IQ: 0, IPC: 0.0329
TH3 ROB: 105 LSQ: 63 IQ: 96, IPC: 2.4359
EPOCH ENDS
EPOCH STARTS
TH0 ROB: 4 LSQ: 0 IQ: 0 IPC: 0.0177
TH1 ROB: 4 LSQ: 1 IQ: 0, IPC: 0.0169
TH2 ROB: 4 LSQ: 4 IQ: 0, IPC: 0.0323
TH3 ROB: 105 LSQ: 63 IQ: 96, IPC: 2.4371
EPOCH ENDS
EPOCH STARTS
TH0 ROB: 4 LSQ: 0 IQ: 0 IPC: 0.0174
TH1 ROB: 4 LSQ: 1 IQ: 0, IPC: 0.0166
TH2 ROB: 4 LSQ: 4 IQ: 0, IPC: 0.0317
TH3 ROB: 105 LSQ: 63 IQ: 96, IPC: 2.4382
EPOCH ENDS
EPOCH STARTS
TH0 ROB: 4 LSQ: 0 IQ: 0 IPC: 0.0171
TH1 ROB: 4 LSQ: 1 IQ: 0, IPC: 0.0163
TH2 ROB: 4 LSQ: 4 IQ: 0, IPC: 0.0311
TH3 ROB: 105 LSQ: 63 IQ: 96, IPC: 2.4393
EPOCH ENDS
EPOCH STARTS
TH0 ROB: 4 LSQ: 0 IQ: 0 IPC: 0.0168
TH1 ROB: 4 LSQ: 1 IQ: 0, IPC: 0.0160
TH2 ROB: 4 LSQ: 4 IQ: 0, IPC: 0.0306
TH3 ROB: 105 LSQ: 63 IQ: 96, IPC: 2.4403
EPOCH ENDS
EPOCH STARTS
TH0 ROB: 4 LSQ: 0 IQ: 0 IPC: 0.0165
TH1 ROB: 4 LSQ: 1 IQ: 0, IPC: 0.0158
TH2 ROB: 4 LSQ: 4 IQ: 0, IPC: 0.0301
TH3 ROB: 105 LSQ: 63 IQ: 96, IPC: 2.4413
EPOCH ENDS
EPOCH STARTS
TH0 ROB: 4 LSQ: 0 IQ: 0 IPC: 0.0163
TH1 ROB: 4 LSQ: 1 IQ: 0, IPC: 0.0155
TH2 ROB: 4 LSQ: 4 IQ: 0, IPC: 0.0296
TH3 ROB: 105 LSQ: 63 IQ: 96, IPC: 2.4423
EPOCH ENDS
EPOCH STARTS
TH0 ROB: 4 LSQ: 0 IQ: 0 IPC: 0.0160
TH1 ROB: 4 LSQ: 1 IQ: 0, IPC: 0.0152
TH2 ROB: 4 LSQ: 4 IQ: 0, IPC: 0.0291
TH3 ROB: 105 LSQ: 63 IQ: 96, IPC: 2.4433
EPOCH ENDS
EPOCH STARTS
TH0 ROB: 4 LSQ: 0 IQ: 0 IPC: 0.0157
TH1 ROB: 4 LSQ: 1 IQ: 0, IPC: 0.0150
TH2 ROB: 4 LSQ: 4 IQ: 0, IPC: 0.0286
TH3 ROB: 105 LSQ: 63 IQ: 96, IPC: 2.4442
EPOCH ENDS
EPOCH STARTS
TH0 ROB: 4 LSQ: 0 IQ: 0 IPC: 0.0155
TH1 ROB: 4 LSQ: 1 IQ: 0, IPC: 0.0148
TH2 ROB: 4 LSQ: 4 IQ: 0, IPC: 0.0282
TH3 ROB: 105 LSQ: 63 IQ: 96, IPC: 2.4451
EPOCH ENDS
EPOCH STARTS
TH0 ROB: 4 LSQ: 0 IQ: 0 IPC: 0.0152
TH1 ROB: 4 LSQ: 1 IQ: 0, IPC: 0.0145
TH2 ROB: 4 LSQ: 4 IQ: 0, IPC: 0.0277
TH3 ROB: 105 LSQ: 63 IQ: 96, IPC: 2.4459
EPOCH ENDS
EPOCH STARTS
TH0 ROB: 4 LSQ: 0 IQ: 0 IPC: 0.0150
TH1 ROB: 4 LSQ: 1 IQ: 0, IPC: 0.0143
TH2 ROB: 4 LSQ: 4 IQ: 0, IPC: 0.0273
TH3 ROB: 105 LSQ: 63 IQ: 96, IPC: 2.4468
EPOCH ENDS
EPOCH STARTS
TH0 ROB: 4 LSQ: 0 IQ: 0 IPC: 0.0148
TH1 ROB: 4 LSQ: 1 IQ: 0, IPC: 0.0141
TH2 ROB: 4 LSQ: 4 IQ: 0, IPC: 0.0269
TH3 ROB: 105 LSQ: 63 IQ: 96, IPC: 2.4476
EPOCH ENDS
EPOCH STARTS
TH0 ROB: 4 LSQ: 0 IQ: 0 IPC: 0.0146
TH1 ROB: 4 LSQ: 1 IQ: 0, IPC: 0.0139
TH2 ROB: 4 LSQ: 4 IQ: 0, IPC: 0.0265
TH3 ROB: 105 LSQ: 63 IQ: 96, IPC: 2.4484
EPOCH ENDS
EPOCH STARTS
TH0 ROB: 4 LSQ: 0 IQ: 0 IPC: 0.0143
TH1 ROB: 4 LSQ: 1 IQ: 0, IPC: 0.0137
TH2 ROB: 4 LSQ: 4 IQ: 0, IPC: 0.0261
TH3 ROB: 105 LSQ: 63 IQ: 96, IPC: 2.4491
EPOCH ENDS
EPOCH STARTS
TH0 ROB: 4 LSQ: 0 IQ: 0 IPC: 0.0141
TH1 ROB: 4 LSQ: 1 IQ: 0, IPC: 0.0135
TH2 ROB: 4 LSQ: 4 IQ: 0, IPC: 0.0257
TH3 ROB: 105 LSQ: 63 IQ: 96, IPC: 2.4498
EPOCH ENDS
EPOCH STARTS
TH0 ROB: 4 LSQ: 0 IQ: 0 IPC: 0.0139
TH1 ROB: 4 LSQ: 1 IQ: 0, IPC: 0.0133
TH2 ROB: 4 LSQ: 4 IQ: 0, IPC: 0.0254
TH3 ROB: 105 LSQ: 63 IQ: 96, IPC: 2.4506
EPOCH ENDS
EPOCH STARTS
TH0 ROB: 4 LSQ: 0 IQ: 0 IPC: 0.0137
TH1 ROB: 4 LSQ: 1 IQ: 0, IPC: 0.0131
TH2 ROB: 4 LSQ: 4 IQ: 0, IPC: 0.0250
TH3 ROB: 105 LSQ: 63 IQ: 96, IPC: 2.4513
EPOCH ENDS
EPOCH STARTS
TH0 ROB: 4 LSQ: 0 IQ: 0 IPC: 0.0135
TH1 ROB: 4 LSQ: 1 IQ: 0, IPC: 0.0129
TH2 ROB: 4 LSQ: 4 IQ: 0, IPC: 0.0246
TH3 ROB: 105 LSQ: 63 IQ: 96, IPC: 2.4519
EPOCH ENDS
EPOCH STARTS
TH0 ROB: 4 LSQ: 0 IQ: 0 IPC: 0.0134
TH1 ROB: 4 LSQ: 1 IQ: 0, IPC: 0.0127
TH2 ROB: 4 LSQ: 4 IQ: 0, IPC: 0.0243
TH3 ROB: 105 LSQ: 63 IQ: 96, IPC: 2.4526
EPOCH ENDS
EPOCH STARTS
TH0 ROB: 4 LSQ: 0 IQ: 0 IPC: 0.0132
TH1 ROB: 4 LSQ: 1 IQ: 0, IPC: 0.0126
TH2 ROB: 4 LSQ: 4 IQ: 0, IPC: 0.0240
TH3 ROB: 105 LSQ: 63 IQ: 96, IPC: 2.4532
EPOCH ENDS
EPOCH STARTS
TH0 ROB: 4 LSQ: 0 IQ: 0 IPC: 0.0130
TH1 ROB: 4 LSQ: 1 IQ: 0, IPC: 0.0124
TH2 ROB: 4 LSQ: 4 IQ: 0, IPC: 0.0237
TH3 ROB: 105 LSQ: 63 IQ: 96, IPC: 2.4539
EPOCH ENDS
EPOCH STARTS
TH0 ROB: 4 LSQ: 0 IQ: 0 IPC: 0.0128
TH1 ROB: 4 LSQ: 1 IQ: 0, IPC: 0.0122
TH2 ROB: 4 LSQ: 4 IQ: 0, IPC: 0.0233
TH3 ROB: 105 LSQ: 63 IQ: 96, IPC: 2.4545
EPOCH ENDS
EPOCH STARTS
TH0 ROB: 4 LSQ: 0 IQ: 0 IPC: 0.0127
TH1 ROB: 4 LSQ: 1 IQ: 0, IPC: 0.0121
TH2 ROB: 4 LSQ: 4 IQ: 0, IPC: 0.0230
TH3 ROB: 105 LSQ: 63 IQ: 96, IPC: 2.4551
EPOCH ENDS
EPOCH STARTS
TH0 ROB: 4 LSQ: 0 IQ: 0 IPC: 0.0125
TH1 ROB: 4 LSQ: 1 IQ: 0, IPC: 0.0119
TH2 ROB: 4 LSQ: 4 IQ: 0, IPC: 0.0228
TH3 ROB: 105 LSQ: 63 IQ: 96, IPC: 2.4556
EPOCH ENDS
EPOCH STARTS
TH0 ROB: 4 LSQ: 0 IQ: 0 IPC: 0.0123
TH1 ROB: 4 LSQ: 1 IQ: 0, IPC: 0.0118
TH2 ROB: 4 LSQ: 4 IQ: 0, IPC: 0.0225
TH3 ROB: 105 LSQ: 63 IQ: 96, IPC: 2.4562
EPOCH ENDS
EPOCH STARTS
TH0 ROB: 4 LSQ: 0 IQ: 0 IPC: 0.0122
TH1 ROB: 4 LSQ: 1 IQ: 0, IPC: 0.0116
TH2 ROB: 4 LSQ: 4 IQ: 0, IPC: 0.0222
TH3 ROB: 105 LSQ: 63 IQ: 96, IPC: 2.4567
EPOCH ENDS
EPOCH STARTS
TH0 ROB: 4 LSQ: 0 IQ: 0 IPC: 0.0120
TH1 ROB: 4 LSQ: 1 IQ: 0, IPC: 0.0115
TH2 ROB: 4 LSQ: 4 IQ: 0, IPC: 0.0219
TH3 ROB: 105 LSQ: 63 IQ: 96, IPC: 2.4573
EPOCH ENDS
EPOCH STARTS
TH0 ROB: 4 LSQ: 0 IQ: 0 IPC: 0.0119
TH1 ROB: 4 LSQ: 1 IQ: 0, IPC: 0.0113
TH2 ROB: 4 LSQ: 4 IQ: 0, IPC: 0.0216
TH3 ROB: 105 LSQ: 63 IQ: 96, IPC: 2.4578
EPOCH ENDS
EPOCH STARTS
TH0 ROB: 4 LSQ: 0 IQ: 0 IPC: 0.0118
TH1 ROB: 4 LSQ: 1 IQ: 0, IPC: 0.0112
TH2 ROB: 4 LSQ: 4 IQ: 0, IPC: 0.0214
TH3 ROB: 105 LSQ: 63 IQ: 96, IPC: 2.4583
EPOCH ENDS
EPOCH STARTS
TH0 ROB: 4 LSQ: 0 IQ: 0 IPC: 0.0116
TH1 ROB: 4 LSQ: 1 IQ: 0, IPC: 0.0111
TH2 ROB: 4 LSQ: 4 IQ: 0, IPC: 0.0211
TH3 ROB: 105 LSQ: 63 IQ: 96, IPC: 2.4588
EPOCH ENDS
EPOCH STARTS
TH0 ROB: 4 LSQ: 0 IQ: 0 IPC: 0.0115
TH1 ROB: 4 LSQ: 1 IQ: 0, IPC: 0.0109
TH2 ROB: 4 LSQ: 4 IQ: 0, IPC: 0.0209
TH3 ROB: 105 LSQ: 63 IQ: 96, IPC: 2.4593
EPOCH ENDS
EPOCH STARTS
TH0 ROB: 4 LSQ: 0 IQ: 0 IPC: 0.0113
TH1 ROB: 4 LSQ: 1 IQ: 0, IPC: 0.0108
TH2 ROB: 4 LSQ: 4 IQ: 0, IPC: 0.0206
TH3 ROB: 105 LSQ: 63 IQ: 96, IPC: 2.4598
EPOCH ENDS
EPOCH STARTS
TH0 ROB: 4 LSQ: 0 IQ: 0 IPC: 0.0112
TH1 ROB: 4 LSQ: 1 IQ: 0, IPC: 0.0107
TH2 ROB: 4 LSQ: 4 IQ: 0, IPC: 0.0204
TH3 ROB: 105 LSQ: 63 IQ: 96, IPC: 2.4602
EPOCH ENDS
EPOCH STARTS
TH0 ROB: 4 LSQ: 0 IQ: 0 IPC: 0.0111
TH1 ROB: 4 LSQ: 1 IQ: 0, IPC: 0.0106
TH2 ROB: 4 LSQ: 4 IQ: 0, IPC: 0.0202
TH3 ROB: 105 LSQ: 63 IQ: 96, IPC: 2.4607
EPOCH ENDS
EPOCH STARTS
TH0 ROB: 4 LSQ: 0 IQ: 0 IPC: 0.0110
TH1 ROB: 4 LSQ: 1 IQ: 0, IPC: 0.0104
TH2 ROB: 4 LSQ: 4 IQ: 0, IPC: 0.0199
TH3 ROB: 105 LSQ: 63 IQ: 96, IPC: 2.4611
EPOCH ENDS
EPOCH STARTS
TH0 ROB: 4 LSQ: 0 IQ: 0 IPC: 0.0108
TH1 ROB: 4 LSQ: 1 IQ: 0, IPC: 0.0103
TH2 ROB: 4 LSQ: 4 IQ: 0, IPC: 0.0197
TH3 ROB: 105 LSQ: 63 IQ: 96, IPC: 2.4616
EPOCH ENDS
EPOCH STARTS
TH0 ROB: 4 LSQ: 0 IQ: 0 IPC: 0.0107
TH1 ROB: 4 LSQ: 1 IQ: 0, IPC: 0.0102
TH2 ROB: 4 LSQ: 4 IQ: 0, IPC: 0.0195
TH3 ROB: 105 LSQ: 63 IQ: 96, IPC: 2.4620
EPOCH ENDS
EPOCH STARTS
TH0 ROB: 4 LSQ: 0 IQ: 0 IPC: 0.0106
TH1 ROB: 4 LSQ: 1 IQ: 0, IPC: 0.0101
TH2 ROB: 4 LSQ: 4 IQ: 0, IPC: 0.0193
TH3 ROB: 105 LSQ: 63 IQ: 96, IPC: 2.4624
EPOCH ENDS
EPOCH STARTS
TH0 ROB: 4 LSQ: 0 IQ: 0 IPC: 0.0105
TH1 ROB: 4 LSQ: 1 IQ: 0, IPC: 0.0100
TH2 ROB: 4 LSQ: 4 IQ: 0, IPC: 0.0191
TH3 ROB: 105 LSQ: 63 IQ: 96, IPC: 2.4628
EPOCH ENDS
EPOCH STARTS
TH0 ROB: 4 LSQ: 0 IQ: 0 IPC: 0.0104
TH1 ROB: 4 LSQ: 1 IQ: 0, IPC: 0.0099
TH2 ROB: 4 LSQ: 4 IQ: 0, IPC: 0.0189
TH3 ROB: 105 LSQ: 63 IQ: 96, IPC: 2.4632
EPOCH ENDS
EPOCH STARTS
TH0 ROB: 4 LSQ: 0 IQ: 0 IPC: 0.0103
TH1 ROB: 4 LSQ: 1 IQ: 0, IPC: 0.0098
TH2 ROB: 4 LSQ: 4 IQ: 0, IPC: 0.0187
TH3 ROB: 105 LSQ: 63 IQ: 96, IPC: 2.4636
EPOCH ENDS
EPOCH STARTS
TH0 ROB: 4 LSQ: 0 IQ: 0 IPC: 0.0102
TH1 ROB: 4 LSQ: 1 IQ: 0, IPC: 0.0097
TH2 ROB: 4 LSQ: 4 IQ: 0, IPC: 0.0185
TH3 ROB: 105 LSQ: 63 IQ: 96, IPC: 2.4640
EPOCH ENDS
EPOCH STARTS
TH0 ROB: 4 LSQ: 0 IQ: 0 IPC: 0.0101
TH1 ROB: 4 LSQ: 1 IQ: 0, IPC: 0.0096
TH2 ROB: 4 LSQ: 4 IQ: 0, IPC: 0.0183
TH3 ROB: 105 LSQ: 63 IQ: 96, IPC: 2.4643
EPOCH ENDS
EPOCH STARTS
TH0 ROB: 4 LSQ: 0 IQ: 0 IPC: 0.0100
TH1 ROB: 4 LSQ: 1 IQ: 0, IPC: 0.0095
TH2 ROB: 4 LSQ: 4 IQ: 0, IPC: 0.0181
TH3 ROB: 105 LSQ: 63 IQ: 96, IPC: 2.4647
EPOCH ENDS
EPOCH STARTS
TH0 ROB: 4 LSQ: 0 IQ: 0 IPC: 0.0099
TH1 ROB: 4 LSQ: 1 IQ: 0, IPC: 0.0094
TH2 ROB: 4 LSQ: 4 IQ: 0, IPC: 0.0179
TH3 ROB: 105 LSQ: 63 IQ: 96, IPC: 2.4650
EPOCH ENDS
EPOCH STARTS
TH0 ROB: 4 LSQ: 0 IQ: 0 IPC: 0.0098
TH1 ROB: 4 LSQ: 1 IQ: 0, IPC: 0.0093
TH2 ROB: 4 LSQ: 4 IQ: 0, IPC: 0.0177
TH3 ROB: 105 LSQ: 63 IQ: 96, IPC: 2.4654
EPOCH ENDS
EPOCH STARTS
TH0 ROB: 4 LSQ: 0 IQ: 0 IPC: 0.0097
TH1 ROB: 4 LSQ: 1 IQ: 0, IPC: 0.0092
TH2 ROB: 4 LSQ: 4 IQ: 0, IPC: 0.0176
TH3 ROB: 105 LSQ: 63 IQ: 96, IPC: 2.4657
EPOCH ENDS
EPOCH STARTS
TH0 ROB: 4 LSQ: 0 IQ: 0 IPC: 0.0096
TH1 ROB: 4 LSQ: 1 IQ: 0, IPC: 0.0091
TH2 ROB: 4 LSQ: 4 IQ: 0, IPC: 0.0174
TH3 ROB: 105 LSQ: 63 IQ: 96, IPC: 2.4661
EPOCH ENDS
EPOCH STARTS
TH0 ROB: 4 LSQ: 0 IQ: 0 IPC: 0.0095
TH1 ROB: 4 LSQ: 1 IQ: 0, IPC: 0.0090
TH2 ROB: 4 LSQ: 4 IQ: 0, IPC: 0.0172
TH3 ROB: 105 LSQ: 63 IQ: 96, IPC: 2.4664
EPOCH ENDS
EPOCH STARTS
TH0 ROB: 4 LSQ: 0 IQ: 0 IPC: 0.0094
TH1 ROB: 4 LSQ: 1 IQ: 0, IPC: 0.0089
TH2 ROB: 4 LSQ: 4 IQ: 0, IPC: 0.0171
TH3 ROB: 105 LSQ: 63 IQ: 96, IPC: 2.4667
EPOCH ENDS
EPOCH STARTS
TH0 ROB: 4 LSQ: 0 IQ: 0 IPC: 0.0093
TH1 ROB: 4 LSQ: 1 IQ: 0, IPC: 0.0089
TH2 ROB: 4 LSQ: 4 IQ: 0, IPC: 0.0169
TH3 ROB: 105 LSQ: 63 IQ: 96, IPC: 2.4670
EPOCH ENDS
EPOCH STARTS
TH0 ROB: 4 LSQ: 0 IQ: 0 IPC: 0.0092
TH1 ROB: 4 LSQ: 1 IQ: 0, IPC: 0.0088
TH2 ROB: 4 LSQ: 4 IQ: 0, IPC: 0.0167
TH3 ROB: 105 LSQ: 63 IQ: 96, IPC: 2.4674
EPOCH ENDS
EPOCH STARTS
TH0 ROB: 4 LSQ: 0 IQ: 0 IPC: 0.0091
TH1 ROB: 4 LSQ: 1 IQ: 0, IPC: 0.0087
TH2 ROB: 4 LSQ: 4 IQ: 0, IPC: 0.0166
TH3 ROB: 105 LSQ: 63 IQ: 96, IPC: 2.4677
EPOCH ENDS
EPOCH STARTS
TH0 ROB: 4 LSQ: 0 IQ: 0 IPC: 0.0090
TH1 ROB: 4 LSQ: 1 IQ: 0, IPC: 0.0086
TH2 ROB: 4 LSQ: 4 IQ: 0, IPC: 0.0164
TH3 ROB: 105 LSQ: 63 IQ: 96, IPC: 2.4680
EPOCH ENDS
EPOCH STARTS
TH0 ROB: 4 LSQ: 0 IQ: 0 IPC: 0.0089
TH1 ROB: 4 LSQ: 1 IQ: 0, IPC: 0.0085
TH2 ROB: 4 LSQ: 4 IQ: 0, IPC: 0.0163
TH3 ROB: 105 LSQ: 63 IQ: 96, IPC: 2.4683
EPOCH ENDS
EPOCH STARTS
TH0 ROB: 4 LSQ: 0 IQ: 0 IPC: 0.0089
TH1 ROB: 4 LSQ: 1 IQ: 0, IPC: 0.0084
TH2 ROB: 4 LSQ: 4 IQ: 0, IPC: 0.0161
TH3 ROB: 105 LSQ: 63 IQ: 96, IPC: 2.4685
EPOCH ENDS
EPOCH STARTS
TH0 ROB: 4 LSQ: 0 IQ: 0 IPC: 0.0088
TH1 ROB: 4 LSQ: 1 IQ: 0, IPC: 0.0084
TH2 ROB: 4 LSQ: 4 IQ: 0, IPC: 0.0160
TH3 ROB: 105 LSQ: 63 IQ: 96, IPC: 2.4688
EPOCH ENDS
EPOCH STARTS
TH0 ROB: 4 LSQ: 0 IQ: 0 IPC: 0.0087
TH1 ROB: 4 LSQ: 1 IQ: 0, IPC: 0.0083
TH2 ROB: 4 LSQ: 4 IQ: 0, IPC: 0.0158
TH3 ROB: 105 LSQ: 63 IQ: 96, IPC: 2.4691
EPOCH ENDS
EPOCH STARTS
TH0 ROB: 4 LSQ: 0 IQ: 0 IPC: 0.0086
TH1 ROB: 4 LSQ: 1 IQ: 0, IPC: 0.0082
TH2 ROB: 4 LSQ: 4 IQ: 0, IPC: 0.0157
TH3 ROB: 105 LSQ: 63 IQ: 96, IPC: 2.4694
EPOCH ENDS
EPOCH STARTS
TH0 ROB: 4 LSQ: 0 IQ: 0 IPC: 0.0086
TH1 ROB: 4 LSQ: 1 IQ: 0, IPC: 0.0082
TH2 ROB: 4 LSQ: 4 IQ: 0, IPC: 0.0156
TH3 ROB: 105 LSQ: 63 IQ: 96, IPC: 2.4696
EPOCH ENDS
EPOCH STARTS
TH0 ROB: 4 LSQ: 0 IQ: 0 IPC: 0.0085
TH1 ROB: 4 LSQ: 1 IQ: 0, IPC: 0.0081
TH2 ROB: 4 LSQ: 4 IQ: 0, IPC: 0.0154
TH3 ROB: 105 LSQ: 63 IQ: 96, IPC: 2.4699
EPOCH ENDS
EPOCH STARTS
TH0 ROB: 4 LSQ: 0 IQ: 0 IPC: 0.0084
TH1 ROB: 4 LSQ: 1 IQ: 0, IPC: 0.0080
TH2 ROB: 4 LSQ: 4 IQ: 0, IPC: 0.0153
TH3 ROB: 105 LSQ: 63 IQ: 96, IPC: 2.4702
EPOCH ENDS
EPOCH STARTS
TH0 ROB: 4 LSQ: 0 IQ: 0 IPC: 0.0083
TH1 ROB: 4 LSQ: 1 IQ: 0, IPC: 0.0079
TH2 ROB: 4 LSQ: 4 IQ: 0, IPC: 0.0152
TH3 ROB: 105 LSQ: 63 IQ: 96, IPC: 2.4704
EPOCH ENDS
EPOCH STARTS
TH0 ROB: 4 LSQ: 0 IQ: 0 IPC: 0.0083
TH1 ROB: 4 LSQ: 1 IQ: 0, IPC: 0.0079
TH2 ROB: 4 LSQ: 4 IQ: 0, IPC: 0.0150
TH3 ROB: 105 LSQ: 63 IQ: 96, IPC: 2.4707
EPOCH ENDS
EPOCH STARTS
TH0 ROB: 4 LSQ: 0 IQ: 0 IPC: 0.0082
TH1 ROB: 4 LSQ: 1 IQ: 0, IPC: 0.0078
TH2 ROB: 4 LSQ: 4 IQ: 0, IPC: 0.0149
TH3 ROB: 105 LSQ: 63 IQ: 96, IPC: 2.4709
EPOCH ENDS
EPOCH STARTS
TH0 ROB: 4 LSQ: 0 IQ: 0 IPC: 0.0081
TH1 ROB: 4 LSQ: 1 IQ: 0, IPC: 0.0077
TH2 ROB: 4 LSQ: 4 IQ: 0, IPC: 0.0148
TH3 ROB: 105 LSQ: 63 IQ: 96, IPC: 2.4712
EPOCH ENDS
EPOCH STARTS
TH0 ROB: 4 LSQ: 0 IQ: 0 IPC: 0.0081
TH1 ROB: 4 LSQ: 1 IQ: 0, IPC: 0.0077
TH2 ROB: 4 LSQ: 4 IQ: 0, IPC: 0.0147
TH3 ROB: 105 LSQ: 63 IQ: 96, IPC: 2.4714
EPOCH ENDS
EPOCH STARTS
TH0 ROB: 4 LSQ: 0 IQ: 0 IPC: 0.0080
TH1 ROB: 4 LSQ: 1 IQ: 0, IPC: 0.0076
TH2 ROB: 4 LSQ: 4 IQ: 0, IPC: 0.0145
TH3 ROB: 105 LSQ: 63 IQ: 96, IPC: 2.4716
EPOCH ENDS
EPOCH STARTS
TH0 ROB: 4 LSQ: 0 IQ: 0 IPC: 0.0079
TH1 ROB: 4 LSQ: 1 IQ: 0, IPC: 0.0076
TH2 ROB: 4 LSQ: 4 IQ: 0, IPC: 0.0144
TH3 ROB: 105 LSQ: 63 IQ: 96, IPC: 2.4719
EPOCH ENDS
EPOCH STARTS
TH0 ROB: 4 LSQ: 0 IQ: 0 IPC: 0.0079
TH1 ROB: 4 LSQ: 1 IQ: 0, IPC: 0.0075
TH2 ROB: 4 LSQ: 4 IQ: 0, IPC: 0.0143
TH3 ROB: 105 LSQ: 63 IQ: 96, IPC: 2.4721
EPOCH ENDS
EPOCH STARTS
TH0 ROB: 4 LSQ: 0 IQ: 0 IPC: 0.0078
TH1 ROB: 4 LSQ: 1 IQ: 0, IPC: 0.0074
TH2 ROB: 4 LSQ: 4 IQ: 0, IPC: 0.0142
TH3 ROB: 105 LSQ: 63 IQ: 96, IPC: 2.4723
EPOCH ENDS
EPOCH STARTS
TH0 ROB: 4 LSQ: 0 IQ: 0 IPC: 0.0077
TH1 ROB: 4 LSQ: 1 IQ: 0, IPC: 0.0074
TH2 ROB: 4 LSQ: 4 IQ: 0, IPC: 0.0141
TH3 ROB: 105 LSQ: 63 IQ: 96, IPC: 2.4725
EPOCH ENDS
EPOCH STARTS
TH0 ROB: 4 LSQ: 0 IQ: 0 IPC: 0.0077
TH1 ROB: 4 LSQ: 1 IQ: 0, IPC: 0.0073
TH2 ROB: 4 LSQ: 4 IQ: 0, IPC: 0.0140
TH3 ROB: 105 LSQ: 63 IQ: 96, IPC: 2.4728
EPOCH ENDS
EPOCH STARTS
TH0 ROB: 4 LSQ: 0 IQ: 0 IPC: 0.0076
TH1 ROB: 4 LSQ: 1 IQ: 0, IPC: 0.0073
TH2 ROB: 4 LSQ: 4 IQ: 0, IPC: 0.0139
TH3 ROB: 105 LSQ: 63 IQ: 96, IPC: 2.4730
EPOCH ENDS
EPOCH STARTS
TH0 ROB: 4 LSQ: 0 IQ: 0 IPC: 0.0076
TH1 ROB: 4 LSQ: 1 IQ: 0, IPC: 0.0072
TH2 ROB: 4 LSQ: 4 IQ: 0, IPC: 0.0138
TH3 ROB: 105 LSQ: 63 IQ: 96, IPC: 2.4732
EPOCH ENDS
EPOCH STARTS
TH0 ROB: 4 LSQ: 0 IQ: 0 IPC: 0.0075
TH1 ROB: 4 LSQ: 1 IQ: 0, IPC: 0.0071
TH2 ROB: 4 LSQ: 4 IQ: 0, IPC: 0.0137
TH3 ROB: 105 LSQ: 63 IQ: 96, IPC: 2.4734
EPOCH ENDS
EPOCH STARTS
TH0 ROB: 4 LSQ: 0 IQ: 0 IPC: 0.0074
TH1 ROB: 4 LSQ: 1 IQ: 0, IPC: 0.0071
TH2 ROB: 4 LSQ: 4 IQ: 0, IPC: 0.0135
TH3 ROB: 105 LSQ: 63 IQ: 96, IPC: 2.4736
EPOCH ENDS
EPOCH STARTS
TH0 ROB: 4 LSQ: 0 IQ: 0 IPC: 0.0074
TH1 ROB: 4 LSQ: 1 IQ: 0, IPC: 0.0070
TH2 ROB: 4 LSQ: 4 IQ: 0, IPC: 0.0134
TH3 ROB: 105 LSQ: 63 IQ: 96, IPC: 2.4738
EPOCH ENDS
EPOCH STARTS
TH0 ROB: 4 LSQ: 0 IQ: 0 IPC: 0.0073
TH1 ROB: 4 LSQ: 1 IQ: 0, IPC: 0.0070
TH2 ROB: 4 LSQ: 4 IQ: 0, IPC: 0.0133
TH3 ROB: 105 LSQ: 63 IQ: 96, IPC: 2.4740
EPOCH ENDS
EPOCH STARTS
TH0 ROB: 4 LSQ: 0 IQ: 0 IPC: 0.0073
TH1 ROB: 4 LSQ: 1 IQ: 0, IPC: 0.0069
TH2 ROB: 4 LSQ: 4 IQ: 0, IPC: 0.0132
TH3 ROB: 105 LSQ: 63 IQ: 96, IPC: 2.4742
EPOCH ENDS
EPOCH STARTS
TH0 ROB: 4 LSQ: 0 IQ: 0 IPC: 0.0072
TH1 ROB: 4 LSQ: 1 IQ: 0, IPC: 0.0069
TH2 ROB: 4 LSQ: 4 IQ: 0, IPC: 0.0131
TH3 ROB: 105 LSQ: 63 IQ: 96, IPC: 2.4744
EPOCH ENDS
EPOCH STARTS
TH0 ROB: 4 LSQ: 0 IQ: 0 IPC: 0.0072
TH1 ROB: 4 LSQ: 1 IQ: 0, IPC: 0.0068
TH2 ROB: 4 LSQ: 4 IQ: 0, IPC: 0.0130
TH3 ROB: 105 LSQ: 63 IQ: 96, IPC: 2.4746
EPOCH ENDS
EPOCH STARTS
TH0 ROB: 4 LSQ: 0 IQ: 0 IPC: 0.0071
TH1 ROB: 4 LSQ: 1 IQ: 0, IPC: 0.0068
TH2 ROB: 4 LSQ: 4 IQ: 0, IPC: 0.0130
TH3 ROB: 105 LSQ: 63 IQ: 96, IPC: 2.4747
EPOCH ENDS
EPOCH STARTS
TH0 ROB: 4 LSQ: 0 IQ: 0 IPC: 0.0071
TH1 ROB: 4 LSQ: 1 IQ: 0, IPC: 0.0067
TH2 ROB: 4 LSQ: 4 IQ: 0, IPC: 0.0129
TH3 ROB: 105 LSQ: 63 IQ: 96, IPC: 2.4749
EPOCH ENDS
EPOCH STARTS
TH0 ROB: 4 LSQ: 0 IQ: 0 IPC: 0.0070
TH1 ROB: 4 LSQ: 1 IQ: 0, IPC: 0.0067
TH2 ROB: 4 LSQ: 4 IQ: 0, IPC: 0.0128
TH3 ROB: 105 LSQ: 63 IQ: 96, IPC: 2.4751
EPOCH ENDS
EPOCH STARTS
TH0 ROB: 4 LSQ: 0 IQ: 0 IPC: 0.0070
TH1 ROB: 4 LSQ: 1 IQ: 0, IPC: 0.0066
TH2 ROB: 4 LSQ: 4 IQ: 0, IPC: 0.0127
TH3 ROB: 105 LSQ: 63 IQ: 96, IPC: 2.4753
EPOCH ENDS
EPOCH STARTS
TH0 ROB: 4 LSQ: 0 IQ: 0 IPC: 0.0069
TH1 ROB: 4 LSQ: 1 IQ: 0, IPC: 0.0066
TH2 ROB: 4 LSQ: 4 IQ: 0, IPC: 0.0126
TH3 ROB: 105 LSQ: 63 IQ: 96, IPC: 2.4755
EPOCH ENDS
EPOCH STARTS
TH0 ROB: 4 LSQ: 0 IQ: 0 IPC: 0.0069
TH1 ROB: 4 LSQ: 1 IQ: 0, IPC: 0.0065
TH2 ROB: 4 LSQ: 4 IQ: 0, IPC: 0.0125
TH3 ROB: 105 LSQ: 63 IQ: 96, IPC: 2.4756
EPOCH ENDS
EPOCH STARTS
TH0 ROB: 4 LSQ: 0 IQ: 0 IPC: 0.0068
TH1 ROB: 4 LSQ: 1 IQ: 0, IPC: 0.0065
TH2 ROB: 4 LSQ: 4 IQ: 0, IPC: 0.0124
TH3 ROB: 105 LSQ: 63 IQ: 96, IPC: 2.4758
EPOCH ENDS
EPOCH STARTS
TH0 ROB: 4 LSQ: 0 IQ: 0 IPC: 0.0068
TH1 ROB: 4 LSQ: 1 IQ: 0, IPC: 0.0065
TH2 ROB: 4 LSQ: 4 IQ: 0, IPC: 0.0123
TH3 ROB: 105 LSQ: 63 IQ: 96, IPC: 2.4760
EPOCH ENDS
EPOCH STARTS
TH0 ROB: 4 LSQ: 0 IQ: 0 IPC: 0.0067
TH1 ROB: 4 LSQ: 1 IQ: 0, IPC: 0.0064
TH2 ROB: 4 LSQ: 4 IQ: 0, IPC: 0.0122
TH3 ROB: 105 LSQ: 63 IQ: 96, IPC: 2.4761
EPOCH ENDS
EPOCH STARTS
TH0 ROB: 4 LSQ: 0 IQ: 0 IPC: 0.0067
TH1 ROB: 4 LSQ: 1 IQ: 0, IPC: 0.0064
TH2 ROB: 4 LSQ: 4 IQ: 0, IPC: 0.0122
TH3 ROB: 105 LSQ: 63 IQ: 96, IPC: 2.4763
EPOCH ENDS
EPOCH STARTS
TH0 ROB: 4 LSQ: 0 IQ: 0 IPC: 0.0066
TH1 ROB: 4 LSQ: 1 IQ: 0, IPC: 0.0063
TH2 ROB: 4 LSQ: 4 IQ: 0, IPC: 0.0121
TH3 ROB: 105 LSQ: 63 IQ: 96, IPC: 2.4765
EPOCH ENDS
EPOCH STARTS
TH0 ROB: 4 LSQ: 0 IQ: 0 IPC: 0.0066
TH1 ROB: 4 LSQ: 1 IQ: 0, IPC: 0.0063
TH2 ROB: 4 LSQ: 4 IQ: 0, IPC: 0.0120
TH3 ROB: 105 LSQ: 63 IQ: 96, IPC: 2.4766
EPOCH ENDS
EPOCH STARTS
TH0 ROB: 4 LSQ: 0 IQ: 0 IPC: 0.0065
TH1 ROB: 4 LSQ: 1 IQ: 0, IPC: 0.0062
TH2 ROB: 4 LSQ: 4 IQ: 0, IPC: 0.0119
TH3 ROB: 105 LSQ: 63 IQ: 96, IPC: 2.4768
EPOCH ENDS
EPOCH STARTS
TH0 ROB: 4 LSQ: 0 IQ: 0 IPC: 0.0065
TH1 ROB: 4 LSQ: 1 IQ: 0, IPC: 0.0062
TH2 ROB: 4 LSQ: 4 IQ: 0, IPC: 0.0118
TH3 ROB: 105 LSQ: 63 IQ: 96, IPC: 2.4769
EPOCH ENDS
EPOCH STARTS
TH0 ROB: 4 LSQ: 0 IQ: 0 IPC: 0.0065
TH1 ROB: 4 LSQ: 1 IQ: 0, IPC: 0.0062
TH2 ROB: 4 LSQ: 4 IQ: 0, IPC: 0.0118
TH3 ROB: 105 LSQ: 63 IQ: 96, IPC: 2.4771
EPOCH ENDS
EPOCH STARTS
TH0 ROB: 4 LSQ: 0 IQ: 0 IPC: 0.0064
TH1 ROB: 4 LSQ: 1 IQ: 0, IPC: 0.0061
TH2 ROB: 4 LSQ: 4 IQ: 0, IPC: 0.0117
TH3 ROB: 105 LSQ: 63 IQ: 96, IPC: 2.4772
EPOCH ENDS
EPOCH STARTS
TH0 ROB: 4 LSQ: 0 IQ: 0 IPC: 0.0064
TH1 ROB: 4 LSQ: 1 IQ: 0, IPC: 0.0061
TH2 ROB: 4 LSQ: 4 IQ: 0, IPC: 0.0116
TH3 ROB: 105 LSQ: 63 IQ: 96, IPC: 2.4774
EPOCH ENDS
EPOCH STARTS
TH0 ROB: 4 LSQ: 0 IQ: 0 IPC: 0.0063
TH1 ROB: 4 LSQ: 1 IQ: 0, IPC: 0.0060
TH2 ROB: 4 LSQ: 4 IQ: 0, IPC: 0.0115
TH3 ROB: 105 LSQ: 63 IQ: 96, IPC: 2.4775
EPOCH ENDS
EPOCH STARTS
TH0 ROB: 4 LSQ: 0 IQ: 0 IPC: 0.0063
TH1 ROB: 4 LSQ: 1 IQ: 0, IPC: 0.0060
TH2 ROB: 4 LSQ: 4 IQ: 0, IPC: 0.0114
TH3 ROB: 105 LSQ: 63 IQ: 96, IPC: 2.4777
EPOCH ENDS
EPOCH STARTS
TH0 ROB: 4 LSQ: 0 IQ: 0 IPC: 0.0063
TH1 ROB: 4 LSQ: 1 IQ: 0, IPC: 0.0060
TH2 ROB: 4 LSQ: 4 IQ: 0, IPC: 0.0114
TH3 ROB: 105 LSQ: 63 IQ: 96, IPC: 2.4778
EPOCH ENDS
EPOCH STARTS
TH0 ROB: 4 LSQ: 0 IQ: 0 IPC: 0.0062
TH1 ROB: 4 LSQ: 1 IQ: 0, IPC: 0.0059
TH2 ROB: 4 LSQ: 4 IQ: 0, IPC: 0.0113
TH3 ROB: 105 LSQ: 63 IQ: 96, IPC: 2.4780
EPOCH ENDS
EPOCH STARTS
TH0 ROB: 4 LSQ: 0 IQ: 0 IPC: 0.0062
TH1 ROB: 4 LSQ: 1 IQ: 0, IPC: 0.0059
TH2 ROB: 4 LSQ: 4 IQ: 0, IPC: 0.0112
TH3 ROB: 105 LSQ: 63 IQ: 96, IPC: 2.4781
EPOCH ENDS
EPOCH STARTS
TH0 ROB: 4 LSQ: 0 IQ: 0 IPC: 0.0061
TH1 ROB: 4 LSQ: 1 IQ: 0, IPC: 0.0058
TH2 ROB: 4 LSQ: 4 IQ: 0, IPC: 0.0112
TH3 ROB: 105 LSQ: 63 IQ: 96, IPC: 2.4782
EPOCH ENDS
EPOCH STARTS
TH0 ROB: 4 LSQ: 0 IQ: 0 IPC: 0.0061
TH1 ROB: 4 LSQ: 1 IQ: 0, IPC: 0.0058
TH2 ROB: 4 LSQ: 4 IQ: 0, IPC: 0.0111
TH3 ROB: 105 LSQ: 63 IQ: 96, IPC: 2.4784
EPOCH ENDS
EPOCH STARTS
TH0 ROB: 4 LSQ: 0 IQ: 0 IPC: 0.0061
TH1 ROB: 4 LSQ: 1 IQ: 0, IPC: 0.0058
TH2 ROB: 4 LSQ: 4 IQ: 0, IPC: 0.0110
TH3 ROB: 105 LSQ: 63 IQ: 96, IPC: 2.4785
EPOCH ENDS
EPOCH STARTS
TH0 ROB: 4 LSQ: 0 IQ: 0 IPC: 0.0060
TH1 ROB: 4 LSQ: 1 IQ: 0, IPC: 0.0057
TH2 ROB: 4 LSQ: 4 IQ: 0, IPC: 0.0110
TH3 ROB: 105 LSQ: 63 IQ: 96, IPC: 2.4786
EPOCH ENDS
EPOCH STARTS
TH0 ROB: 4 LSQ: 0 IQ: 0 IPC: 0.0060
TH1 ROB: 4 LSQ: 1 IQ: 0, IPC: 0.0057
TH2 ROB: 4 LSQ: 4 IQ: 0, IPC: 0.0109
TH3 ROB: 105 LSQ: 63 IQ: 96, IPC: 2.4788
EPOCH ENDS
EPOCH STARTS
TH0 ROB: 4 LSQ: 0 IQ: 0 IPC: 0.0059
TH1 ROB: 4 LSQ: 1 IQ: 0, IPC: 0.0057
TH2 ROB: 4 LSQ: 4 IQ: 0, IPC: 0.0108
TH3 ROB: 105 LSQ: 63 IQ: 96, IPC: 2.4789
EPOCH ENDS
EPOCH STARTS
TH0 ROB: 4 LSQ: 0 IQ: 0 IPC: 0.0059
TH1 ROB: 4 LSQ: 1 IQ: 0, IPC: 0.0056
TH2 ROB: 4 LSQ: 4 IQ: 0, IPC: 0.0108
TH3 ROB: 105 LSQ: 63 IQ: 96, IPC: 2.4790
EPOCH ENDS
EPOCH STARTS
TH0 ROB: 4 LSQ: 0 IQ: 0 IPC: 0.0059
TH1 ROB: 4 LSQ: 1 IQ: 0, IPC: 0.0056
TH2 ROB: 4 LSQ: 4 IQ: 0, IPC: 0.0107
TH3 ROB: 105 LSQ: 63 IQ: 96, IPC: 2.4792
EPOCH ENDS
EPOCH STARTS
TH0 ROB: 4 LSQ: 0 IQ: 0 IPC: 0.0058
TH1 ROB: 4 LSQ: 1 IQ: 0, IPC: 0.0056
TH2 ROB: 4 LSQ: 4 IQ: 0, IPC: 0.0106
TH3 ROB: 105 LSQ: 63 IQ: 96, IPC: 2.4793
EPOCH ENDS
EPOCH STARTS
TH0 ROB: 4 LSQ: 0 IQ: 0 IPC: 0.0058
TH1 ROB: 4 LSQ: 1 IQ: 0, IPC: 0.0055
TH2 ROB: 4 LSQ: 4 IQ: 0, IPC: 0.0106
TH3 ROB: 105 LSQ: 63 IQ: 96, IPC: 2.4794
EPOCH ENDS
EPOCH STARTS
TH0 ROB: 4 LSQ: 0 IQ: 0 IPC: 0.0058
TH1 ROB: 4 LSQ: 1 IQ: 0, IPC: 0.0055
TH2 ROB: 4 LSQ: 4 IQ: 0, IPC: 0.0105
TH3 ROB: 105 LSQ: 63 IQ: 96, IPC: 2.4795
EPOCH ENDS
EPOCH STARTS
TH0 ROB: 4 LSQ: 0 IQ: 0 IPC: 0.0057
TH1 ROB: 4 LSQ: 1 IQ: 0, IPC: 0.0055
TH2 ROB: 4 LSQ: 4 IQ: 0, IPC: 0.0104
TH3 ROB: 105 LSQ: 63 IQ: 96, IPC: 2.4796
EPOCH ENDS
EPOCH STARTS
TH0 ROB: 4 LSQ: 0 IQ: 0 IPC: 0.0057
TH1 ROB: 4 LSQ: 1 IQ: 0, IPC: 0.0054
TH2 ROB: 4 LSQ: 4 IQ: 0, IPC: 0.0104
TH3 ROB: 105 LSQ: 63 IQ: 96, IPC: 2.4798
EPOCH ENDS
EPOCH STARTS
TH0 ROB: 4 LSQ: 0 IQ: 0 IPC: 0.0057
TH1 ROB: 4 LSQ: 1 IQ: 0, IPC: 0.0054
TH2 ROB: 4 LSQ: 4 IQ: 0, IPC: 0.0103
TH3 ROB: 105 LSQ: 63 IQ: 96, IPC: 2.4799
EPOCH ENDS
EPOCH STARTS
TH0 ROB: 4 LSQ: 0 IQ: 0 IPC: 0.0056
TH1 ROB: 4 LSQ: 1 IQ: 0, IPC: 0.0054
TH2 ROB: 4 LSQ: 4 IQ: 0, IPC: 0.0103
TH3 ROB: 105 LSQ: 63 IQ: 96, IPC: 2.4800
EPOCH ENDS
EPOCH STARTS
TH0 ROB: 4 LSQ: 0 IQ: 0 IPC: 0.0056
TH1 ROB: 4 LSQ: 1 IQ: 0, IPC: 0.0053
TH2 ROB: 4 LSQ: 4 IQ: 0, IPC: 0.0102
TH3 ROB: 105 LSQ: 63 IQ: 96, IPC: 2.4801
EPOCH ENDS
EPOCH STARTS
TH0 ROB: 4 LSQ: 0 IQ: 0 IPC: 0.0056
TH1 ROB: 4 LSQ: 1 IQ: 0, IPC: 0.0053
TH2 ROB: 4 LSQ: 4 IQ: 0, IPC: 0.0101
TH3 ROB: 105 LSQ: 63 IQ: 96, IPC: 2.4802
EPOCH ENDS
EPOCH STARTS
TH0 ROB: 4 LSQ: 0 IQ: 0 IPC: 0.0055
TH1 ROB: 4 LSQ: 1 IQ: 0, IPC: 0.0053
TH2 ROB: 4 LSQ: 4 IQ: 0, IPC: 0.0101
TH3 ROB: 105 LSQ: 63 IQ: 96, IPC: 2.4803
EPOCH ENDS
EPOCH STARTS
TH0 ROB: 4 LSQ: 0 IQ: 0 IPC: 0.0055
TH1 ROB: 4 LSQ: 1 IQ: 0, IPC: 0.0053
TH2 ROB: 4 LSQ: 4 IQ: 0, IPC: 0.0100
TH3 ROB: 105 LSQ: 63 IQ: 96, IPC: 2.4804
EPOCH ENDS
EPOCH STARTS
TH0 ROB: 4 LSQ: 0 IQ: 0 IPC: 0.0055
TH1 ROB: 4 LSQ: 1 IQ: 0, IPC: 0.0052
TH2 ROB: 4 LSQ: 4 IQ: 0, IPC: 0.0100
TH3 ROB: 105 LSQ: 63 IQ: 96, IPC: 2.4806
EPOCH ENDS
EPOCH STARTS
TH0 ROB: 4 LSQ: 0 IQ: 0 IPC: 0.0054
TH1 ROB: 4 LSQ: 1 IQ: 0, IPC: 0.0052
TH2 ROB: 4 LSQ: 4 IQ: 0, IPC: 0.0099
TH3 ROB: 105 LSQ: 63 IQ: 96, IPC: 2.4807
EPOCH ENDS
EPOCH STARTS
TH0 ROB: 4 LSQ: 0 IQ: 0 IPC: 0.0054
TH1 ROB: 4 LSQ: 1 IQ: 0, IPC: 0.0052
TH2 ROB: 4 LSQ: 4 IQ: 0, IPC: 0.0099
TH3 ROB: 105 LSQ: 63 IQ: 96, IPC: 2.4808
EPOCH ENDS
EPOCH STARTS
TH0 ROB: 4 LSQ: 0 IQ: 0 IPC: 0.0054
TH1 ROB: 4 LSQ: 1 IQ: 0, IPC: 0.0051
TH2 ROB: 4 LSQ: 4 IQ: 0, IPC: 0.0098
TH3 ROB: 105 LSQ: 63 IQ: 96, IPC: 2.4809
EPOCH ENDS
EPOCH STARTS
TH0 ROB: 4 LSQ: 0 IQ: 0 IPC: 0.0054
TH1 ROB: 4 LSQ: 1 IQ: 0, IPC: 0.0051
TH2 ROB: 4 LSQ: 4 IQ: 0, IPC: 0.0098
TH3 ROB: 105 LSQ: 63 IQ: 96, IPC: 2.4810
EPOCH ENDS
EPOCH STARTS
TH0 ROB: 4 LSQ: 0 IQ: 0 IPC: 0.0053
TH1 ROB: 4 LSQ: 1 IQ: 0, IPC: 0.0051
TH2 ROB: 4 LSQ: 4 IQ: 0, IPC: 0.0097
TH3 ROB: 105 LSQ: 63 IQ: 96, IPC: 2.4811
EPOCH ENDS
EPOCH STARTS
TH0 ROB: 4 LSQ: 0 IQ: 0 IPC: 0.0053
TH1 ROB: 4 LSQ: 1 IQ: 0, IPC: 0.0051
TH2 ROB: 4 LSQ: 4 IQ: 0, IPC: 0.0096
TH3 ROB: 105 LSQ: 63 IQ: 96, IPC: 2.4812
EPOCH ENDS
EPOCH STARTS
TH0 ROB: 4 LSQ: 0 IQ: 0 IPC: 0.0053
TH1 ROB: 4 LSQ: 1 IQ: 0, IPC: 0.0050
TH2 ROB: 4 LSQ: 4 IQ: 0, IPC: 0.0096
TH3 ROB: 105 LSQ: 63 IQ: 96, IPC: 2.4813
EPOCH ENDS
EPOCH STARTS
TH0 ROB: 4 LSQ: 0 IQ: 0 IPC: 0.0052
TH1 ROB: 4 LSQ: 1 IQ: 0, IPC: 0.0050
TH2 ROB: 4 LSQ: 4 IQ: 0, IPC: 0.0095
TH3 ROB: 105 LSQ: 63 IQ: 96, IPC: 2.4814
EPOCH ENDS
EPOCH STARTS
TH0 ROB: 4 LSQ: 0 IQ: 0 IPC: 0.0052
TH1 ROB: 4 LSQ: 1 IQ: 0, IPC: 0.0050
TH2 ROB: 4 LSQ: 4 IQ: 0, IPC: 0.0095
TH3 ROB: 105 LSQ: 63 IQ: 96, IPC: 2.4815
EPOCH ENDS
EPOCH STARTS
TH0 ROB: 4 LSQ: 0 IQ: 0 IPC: 0.0052
TH1 ROB: 4 LSQ: 1 IQ: 0, IPC: 0.0049
TH2 ROB: 4 LSQ: 4 IQ: 0, IPC: 0.0094
TH3 ROB: 105 LSQ: 63 IQ: 96, IPC: 2.4816
EPOCH ENDS
EPOCH STARTS
TH0 ROB: 4 LSQ: 0 IQ: 0 IPC: 0.0052
TH1 ROB: 4 LSQ: 1 IQ: 0, IPC: 0.0049
TH2 ROB: 4 LSQ: 4 IQ: 0, IPC: 0.0094
TH3 ROB: 105 LSQ: 63 IQ: 96, IPC: 2.4817
EPOCH ENDS
EPOCH STARTS
TH0 ROB: 4 LSQ: 0 IQ: 0 IPC: 0.0051
TH1 ROB: 4 LSQ: 1 IQ: 0, IPC: 0.0049
TH2 ROB: 4 LSQ: 4 IQ: 0, IPC: 0.0093
TH3 ROB: 105 LSQ: 63 IQ: 96, IPC: 2.4818
EPOCH ENDS
EPOCH STARTS
TH0 ROB: 4 LSQ: 0 IQ: 0 IPC: 0.0051
TH1 ROB: 4 LSQ: 1 IQ: 0, IPC: 0.0049
TH2 ROB: 4 LSQ: 4 IQ: 0, IPC: 0.0093
TH3 ROB: 105 LSQ: 63 IQ: 96, IPC: 2.4819
EPOCH ENDS
EPOCH STARTS
TH0 ROB: 4 LSQ: 0 IQ: 0 IPC: 0.0051
TH1 ROB: 4 LSQ: 1 IQ: 0, IPC: 0.0048
TH2 ROB: 4 LSQ: 4 IQ: 0, IPC: 0.0092
TH3 ROB: 105 LSQ: 63 IQ: 96, IPC: 2.4820
EPOCH ENDS
EPOCH STARTS
TH0 ROB: 4 LSQ: 0 IQ: 0 IPC: 0.0051
TH1 ROB: 4 LSQ: 1 IQ: 0, IPC: 0.0048
TH2 ROB: 4 LSQ: 4 IQ: 0, IPC: 0.0092
TH3 ROB: 105 LSQ: 63 IQ: 96, IPC: 2.4821
EPOCH ENDS
EPOCH STARTS
TH0 ROB: 4 LSQ: 0 IQ: 0 IPC: 0.0050
TH1 ROB: 4 LSQ: 1 IQ: 0, IPC: 0.0048
TH2 ROB: 4 LSQ: 4 IQ: 0, IPC: 0.0091
TH3 ROB: 105 LSQ: 63 IQ: 96, IPC: 2.4822
EPOCH ENDS
EPOCH STARTS
TH0 ROB: 4 LSQ: 0 IQ: 0 IPC: 0.0050
TH1 ROB: 4 LSQ: 1 IQ: 0, IPC: 0.0048
TH2 ROB: 4 LSQ: 4 IQ: 0, IPC: 0.0091
TH3 ROB: 105 LSQ: 63 IQ: 96, IPC: 2.4823
EPOCH ENDS
EPOCH STARTS
TH0 ROB: 4 LSQ: 0 IQ: 0 IPC: 0.0050
TH1 ROB: 4 LSQ: 1 IQ: 0, IPC: 0.0047
TH2 ROB: 4 LSQ: 4 IQ: 0, IPC: 0.0091
TH3 ROB: 105 LSQ: 63 IQ: 96, IPC: 2.4823
EPOCH ENDS
EPOCH STARTS
TH0 ROB: 4 LSQ: 0 IQ: 0 IPC: 0.0050
TH1 ROB: 4 LSQ: 1 IQ: 0, IPC: 0.0047
TH2 ROB: 4 LSQ: 4 IQ: 0, IPC: 0.0090
TH3 ROB: 105 LSQ: 63 IQ: 96, IPC: 2.4824
EPOCH ENDS
EPOCH STARTS
TH0 ROB: 4 LSQ: 0 IQ: 0 IPC: 0.0049
TH1 ROB: 4 LSQ: 1 IQ: 0, IPC: 0.0047
TH2 ROB: 4 LSQ: 4 IQ: 0, IPC: 0.0090
TH3 ROB: 105 LSQ: 63 IQ: 96, IPC: 2.4825
EPOCH ENDS
EPOCH STARTS
TH0 ROB: 4 LSQ: 0 IQ: 0 IPC: 0.0049
TH1 ROB: 4 LSQ: 1 IQ: 0, IPC: 0.0047
TH2 ROB: 4 LSQ: 4 IQ: 0, IPC: 0.0089
TH3 ROB: 105 LSQ: 63 IQ: 96, IPC: 2.4826
EPOCH ENDS
EPOCH STARTS
TH0 ROB: 4 LSQ: 0 IQ: 0 IPC: 0.0049
TH1 ROB: 4 LSQ: 1 IQ: 0, IPC: 0.0046
TH2 ROB: 4 LSQ: 4 IQ: 0, IPC: 0.0089
TH3 ROB: 105 LSQ: 63 IQ: 96, IPC: 2.4827
EPOCH ENDS
EPOCH STARTS
TH0 ROB: 4 LSQ: 0 IQ: 0 IPC: 0.0049
TH1 ROB: 4 LSQ: 1 IQ: 0, IPC: 0.0046
TH2 ROB: 4 LSQ: 4 IQ: 0, IPC: 0.0088
TH3 ROB: 105 LSQ: 63 IQ: 96, IPC: 2.4828
EPOCH ENDS
EPOCH STARTS
TH0 ROB: 4 LSQ: 0 IQ: 0 IPC: 0.0048
TH1 ROB: 4 LSQ: 1 IQ: 0, IPC: 0.0046
TH2 ROB: 4 LSQ: 4 IQ: 0, IPC: 0.0088
TH3 ROB: 105 LSQ: 63 IQ: 96, IPC: 2.4829
EPOCH ENDS
EPOCH STARTS
TH0 ROB: 4 LSQ: 0 IQ: 0 IPC: 0.0048
TH1 ROB: 4 LSQ: 1 IQ: 0, IPC: 0.0046
TH2 ROB: 4 LSQ: 4 IQ: 0, IPC: 0.0087
TH3 ROB: 105 LSQ: 63 IQ: 96, IPC: 2.4830
EPOCH ENDS
EPOCH STARTS
TH0 ROB: 4 LSQ: 0 IQ: 0 IPC: 0.0048
TH1 ROB: 4 LSQ: 1 IQ: 0, IPC: 0.0046
TH2 ROB: 4 LSQ: 4 IQ: 0, IPC: 0.0087
TH3 ROB: 105 LSQ: 63 IQ: 96, IPC: 2.4830
EPOCH ENDS
EPOCH STARTS
TH0 ROB: 4 LSQ: 0 IQ: 0 IPC: 0.0048
TH1 ROB: 4 LSQ: 1 IQ: 0, IPC: 0.0045
TH2 ROB: 4 LSQ: 4 IQ: 0, IPC: 0.0087
TH3 ROB: 105 LSQ: 63 IQ: 96, IPC: 2.4831
EPOCH ENDS
EPOCH STARTS
TH0 ROB: 4 LSQ: 0 IQ: 0 IPC: 0.0047
TH1 ROB: 4 LSQ: 1 IQ: 0, IPC: 0.0045
TH2 ROB: 4 LSQ: 4 IQ: 0, IPC: 0.0086
TH3 ROB: 105 LSQ: 63 IQ: 96, IPC: 2.4832
EPOCH ENDS
EPOCH STARTS
TH0 ROB: 4 LSQ: 0 IQ: 0 IPC: 0.0047
TH1 ROB: 4 LSQ: 1 IQ: 0, IPC: 0.0045
TH2 ROB: 4 LSQ: 4 IQ: 0, IPC: 0.0086
TH3 ROB: 105 LSQ: 63 IQ: 96, IPC: 2.4833
EPOCH ENDS
EPOCH STARTS
TH0 ROB: 4 LSQ: 0 IQ: 0 IPC: 0.0047
TH1 ROB: 4 LSQ: 1 IQ: 0, IPC: 0.0045
TH2 ROB: 4 LSQ: 4 IQ: 0, IPC: 0.0085
TH3 ROB: 105 LSQ: 63 IQ: 96, IPC: 2.4834
EPOCH ENDS
EPOCH STARTS
TH0 ROB: 4 LSQ: 0 IQ: 0 IPC: 0.0047
TH1 ROB: 4 LSQ: 1 IQ: 0, IPC: 0.0044
TH2 ROB: 4 LSQ: 4 IQ: 0, IPC: 0.0085
TH3 ROB: 105 LSQ: 63 IQ: 96, IPC: 2.4834
EPOCH ENDS
EPOCH STARTS
TH0 ROB: 4 LSQ: 0 IQ: 0 IPC: 0.0046
TH1 ROB: 4 LSQ: 1 IQ: 0, IPC: 0.0044
TH2 ROB: 4 LSQ: 4 IQ: 0, IPC: 0.0085
TH3 ROB: 105 LSQ: 63 IQ: 96, IPC: 2.4835
EPOCH ENDS
EPOCH STARTS
TH0 ROB: 4 LSQ: 0 IQ: 0 IPC: 0.0046
TH1 ROB: 4 LSQ: 1 IQ: 0, IPC: 0.0044
TH2 ROB: 4 LSQ: 4 IQ: 0, IPC: 0.0084
TH3 ROB: 105 LSQ: 63 IQ: 96, IPC: 2.4836
EPOCH ENDS
EPOCH STARTS
TH0 ROB: 4 LSQ: 0 IQ: 0 IPC: 0.0046
TH1 ROB: 4 LSQ: 1 IQ: 0, IPC: 0.0044
TH2 ROB: 4 LSQ: 4 IQ: 0, IPC: 0.0084
TH3 ROB: 105 LSQ: 63 IQ: 96, IPC: 2.4837
EPOCH ENDS
EPOCH STARTS
TH0 ROB: 4 LSQ: 0 IQ: 0 IPC: 0.0046
TH1 ROB: 4 LSQ: 1 IQ: 0, IPC: 0.0044
TH2 ROB: 4 LSQ: 4 IQ: 0, IPC: 0.0083
TH3 ROB: 105 LSQ: 63 IQ: 96, IPC: 2.4838
EPOCH ENDS
EPOCH STARTS
TH0 ROB: 4 LSQ: 0 IQ: 0 IPC: 0.0046
TH1 ROB: 4 LSQ: 1 IQ: 0, IPC: 0.0043
TH2 ROB: 4 LSQ: 4 IQ: 0, IPC: 0.0083
TH3 ROB: 105 LSQ: 63 IQ: 96, IPC: 2.4838
EPOCH ENDS
EPOCH STARTS
TH0 ROB: 4 LSQ: 0 IQ: 0 IPC: 0.0045
TH1 ROB: 4 LSQ: 1 IQ: 0, IPC: 0.0043
TH2 ROB: 4 LSQ: 4 IQ: 0, IPC: 0.0083
TH3 ROB: 105 LSQ: 63 IQ: 96, IPC: 2.4839
EPOCH ENDS
EPOCH STARTS
TH0 ROB: 4 LSQ: 0 IQ: 0 IPC: 0.0045
TH1 ROB: 4 LSQ: 1 IQ: 0, IPC: 0.0043
TH2 ROB: 4 LSQ: 4 IQ: 0, IPC: 0.0082
TH3 ROB: 105 LSQ: 63 IQ: 96, IPC: 2.4840
EPOCH ENDS
EPOCH STARTS
TH0 ROB: 4 LSQ: 0 IQ: 0 IPC: 0.0045
TH1 ROB: 4 LSQ: 1 IQ: 0, IPC: 0.0043
TH2 ROB: 4 LSQ: 4 IQ: 0, IPC: 0.0082
TH3 ROB: 105 LSQ: 63 IQ: 96, IPC: 2.4841
EPOCH ENDS
EPOCH STARTS
TH0 ROB: 4 LSQ: 0 IQ: 0 IPC: 0.0045
TH1 ROB: 4 LSQ: 1 IQ: 0, IPC: 0.0043
TH2 ROB: 4 LSQ: 4 IQ: 0, IPC: 0.0081
TH3 ROB: 105 LSQ: 63 IQ: 96, IPC: 2.4841
EPOCH ENDS
EPOCH STARTS
TH0 ROB: 4 LSQ: 0 IQ: 0 IPC: 0.0045
TH1 ROB: 4 LSQ: 1 IQ: 0, IPC: 0.0042
TH2 ROB: 4 LSQ: 4 IQ: 0, IPC: 0.0081
TH3 ROB: 105 LSQ: 63 IQ: 96, IPC: 2.4842
EPOCH ENDS
EPOCH STARTS
TH0 ROB: 4 LSQ: 0 IQ: 0 IPC: 0.0044
TH1 ROB: 4 LSQ: 1 IQ: 0, IPC: 0.0042
TH2 ROB: 4 LSQ: 4 IQ: 0, IPC: 0.0081
TH3 ROB: 105 LSQ: 63 IQ: 96, IPC: 2.4843
EPOCH ENDS
EPOCH STARTS
TH0 ROB: 4 LSQ: 0 IQ: 0 IPC: 0.0044
TH1 ROB: 4 LSQ: 1 IQ: 0, IPC: 0.0042
TH2 ROB: 4 LSQ: 4 IQ: 0, IPC: 0.0080
TH3 ROB: 105 LSQ: 63 IQ: 96, IPC: 2.4843
EPOCH ENDS
EPOCH STARTS
TH0 ROB: 4 LSQ: 0 IQ: 0 IPC: 0.0044
TH1 ROB: 4 LSQ: 1 IQ: 0, IPC: 0.0042
TH2 ROB: 4 LSQ: 4 IQ: 0, IPC: 0.0080
TH3 ROB: 105 LSQ: 63 IQ: 96, IPC: 2.4844
EPOCH ENDS
EPOCH STARTS
TH0 ROB: 4 LSQ: 0 IQ: 0 IPC: 0.0044
TH1 ROB: 4 LSQ: 1 IQ: 0, IPC: 0.0042
TH2 ROB: 4 LSQ: 4 IQ: 0, IPC: 0.0080
TH3 ROB: 105 LSQ: 63 IQ: 96, IPC: 2.4845
EPOCH ENDS
EPOCH STARTS
TH0 ROB: 4 LSQ: 0 IQ: 0 IPC: 0.0044
TH1 ROB: 4 LSQ: 1 IQ: 0, IPC: 0.0041
TH2 ROB: 4 LSQ: 4 IQ: 0, IPC: 0.0079
TH3 ROB: 105 LSQ: 63 IQ: 96, IPC: 2.4846
EPOCH ENDS
EPOCH STARTS
TH0 ROB: 4 LSQ: 0 IQ: 0 IPC: 0.0043
TH1 ROB: 4 LSQ: 1 IQ: 0, IPC: 0.0041
TH2 ROB: 4 LSQ: 4 IQ: 0, IPC: 0.0079
TH3 ROB: 105 LSQ: 63 IQ: 96, IPC: 2.4846
EPOCH ENDS
EPOCH STARTS
TH0 ROB: 4 LSQ: 0 IQ: 0 IPC: 0.0043
TH1 ROB: 4 LSQ: 1 IQ: 0, IPC: 0.0041
TH2 ROB: 4 LSQ: 4 IQ: 0, IPC: 0.0079
TH3 ROB: 105 LSQ: 63 IQ: 96, IPC: 2.4847
EPOCH ENDS
EPOCH STARTS
TH0 ROB: 4 LSQ: 0 IQ: 0 IPC: 0.0043
TH1 ROB: 4 LSQ: 1 IQ: 0, IPC: 0.0041
TH2 ROB: 4 LSQ: 4 IQ: 0, IPC: 0.0078
TH3 ROB: 105 LSQ: 63 IQ: 96, IPC: 2.4848
EPOCH ENDS
EPOCH STARTS
TH0 ROB: 4 LSQ: 0 IQ: 0 IPC: 0.0043
TH1 ROB: 4 LSQ: 1 IQ: 0, IPC: 0.0041
TH2 ROB: 4 LSQ: 4 IQ: 0, IPC: 0.0078
TH3 ROB: 105 LSQ: 63 IQ: 96, IPC: 2.4848
EPOCH ENDS
EPOCH STARTS
TH0 ROB: 4 LSQ: 0 IQ: 0 IPC: 0.0043
TH1 ROB: 4 LSQ: 1 IQ: 0, IPC: 0.0041
TH2 ROB: 4 LSQ: 4 IQ: 0, IPC: 0.0077
TH3 ROB: 105 LSQ: 63 IQ: 96, IPC: 2.4849
EPOCH ENDS
EPOCH STARTS
TH0 ROB: 4 LSQ: 0 IQ: 0 IPC: 0.0042
TH1 ROB: 4 LSQ: 1 IQ: 0, IPC: 0.0040
TH2 ROB: 4 LSQ: 4 IQ: 0, IPC: 0.0077
TH3 ROB: 105 LSQ: 63 IQ: 96, IPC: 2.4850
EPOCH ENDS
EPOCH STARTS
TH0 ROB: 4 LSQ: 0 IQ: 0 IPC: 0.0042
TH1 ROB: 4 LSQ: 1 IQ: 0, IPC: 0.0040
TH2 ROB: 4 LSQ: 4 IQ: 0, IPC: 0.0077
TH3 ROB: 105 LSQ: 63 IQ: 96, IPC: 2.4850
EPOCH ENDS
EPOCH STARTS
TH0 ROB: 4 LSQ: 0 IQ: 0 IPC: 0.0042
TH1 ROB: 4 LSQ: 1 IQ: 0, IPC: 0.0040
TH2 ROB: 4 LSQ: 4 IQ: 0, IPC: 0.0076
TH3 ROB: 105 LSQ: 63 IQ: 96, IPC: 2.4851
EPOCH ENDS
EPOCH STARTS
TH0 ROB: 4 LSQ: 0 IQ: 0 IPC: 0.0042
TH1 ROB: 4 LSQ: 1 IQ: 0, IPC: 0.0040
TH2 ROB: 4 LSQ: 4 IQ: 0, IPC: 0.0076
TH3 ROB: 105 LSQ: 63 IQ: 96, IPC: 2.4851
EPOCH ENDS
EPOCH STARTS
TH0 ROB: 4 LSQ: 0 IQ: 0 IPC: 0.0042
TH1 ROB: 4 LSQ: 1 IQ: 0, IPC: 0.0040
TH2 ROB: 4 LSQ: 4 IQ: 0, IPC: 0.0076
TH3 ROB: 105 LSQ: 63 IQ: 96, IPC: 2.4852
EPOCH ENDS
EPOCH STARTS
TH0 ROB: 4 LSQ: 0 IQ: 0 IPC: 0.0042
TH1 ROB: 4 LSQ: 1 IQ: 0, IPC: 0.0040
TH2 ROB: 4 LSQ: 4 IQ: 0, IPC: 0.0076
TH3 ROB: 105 LSQ: 63 IQ: 96, IPC: 2.4853
EPOCH ENDS
EPOCH STARTS
TH0 ROB: 4 LSQ: 0 IQ: 0 IPC: 0.0041
TH1 ROB: 4 LSQ: 1 IQ: 0, IPC: 0.0039
TH2 ROB: 4 LSQ: 4 IQ: 0, IPC: 0.0075
TH3 ROB: 105 LSQ: 63 IQ: 96, IPC: 2.4853
EPOCH ENDS
EPOCH STARTS
TH0 ROB: 4 LSQ: 0 IQ: 0 IPC: 0.0041
TH1 ROB: 4 LSQ: 1 IQ: 0, IPC: 0.0039
TH2 ROB: 4 LSQ: 4 IQ: 0, IPC: 0.0075
TH3 ROB: 105 LSQ: 63 IQ: 96, IPC: 2.4854
EPOCH ENDS
EPOCH STARTS
TH0 ROB: 4 LSQ: 0 IQ: 0 IPC: 0.0041
TH1 ROB: 4 LSQ: 1 IQ: 0, IPC: 0.0039
TH2 ROB: 4 LSQ: 4 IQ: 0, IPC: 0.0075
TH3 ROB: 105 LSQ: 63 IQ: 96, IPC: 2.4855
EPOCH ENDS
EPOCH STARTS
TH0 ROB: 4 LSQ: 0 IQ: 0 IPC: 0.0041
TH1 ROB: 4 LSQ: 1 IQ: 0, IPC: 0.0039
TH2 ROB: 4 LSQ: 4 IQ: 0, IPC: 0.0074
TH3 ROB: 105 LSQ: 63 IQ: 96, IPC: 2.4855
EPOCH ENDS
EPOCH STARTS
TH0 ROB: 4 LSQ: 0 IQ: 0 IPC: 0.0041
TH1 ROB: 4 LSQ: 1 IQ: 0, IPC: 0.0039
TH2 ROB: 4 LSQ: 4 IQ: 0, IPC: 0.0074
TH3 ROB: 105 LSQ: 63 IQ: 96, IPC: 2.4856
EPOCH ENDS
EPOCH STARTS
TH0 ROB: 4 LSQ: 0 IQ: 0 IPC: 0.0040
TH1 ROB: 4 LSQ: 1 IQ: 0, IPC: 0.0039
TH2 ROB: 4 LSQ: 4 IQ: 0, IPC: 0.0074
TH3 ROB: 105 LSQ: 63 IQ: 96, IPC: 2.4856
EPOCH ENDS
EPOCH STARTS
TH0 ROB: 4 LSQ: 0 IQ: 0 IPC: 0.0040
TH1 ROB: 4 LSQ: 1 IQ: 0, IPC: 0.0038
TH2 ROB: 4 LSQ: 4 IQ: 0, IPC: 0.0073
TH3 ROB: 105 LSQ: 63 IQ: 96, IPC: 2.4857
EPOCH ENDS
EPOCH STARTS
TH0 ROB: 4 LSQ: 0 IQ: 0 IPC: 0.0040
TH1 ROB: 4 LSQ: 1 IQ: 0, IPC: 0.0038
TH2 ROB: 4 LSQ: 4 IQ: 0, IPC: 0.0073
TH3 ROB: 105 LSQ: 63 IQ: 96, IPC: 2.4858
EPOCH ENDS
EPOCH STARTS
TH0 ROB: 4 LSQ: 0 IQ: 0 IPC: 0.0040
TH1 ROB: 4 LSQ: 1 IQ: 0, IPC: 0.0038
TH2 ROB: 4 LSQ: 4 IQ: 0, IPC: 0.0073
TH3 ROB: 105 LSQ: 63 IQ: 96, IPC: 2.4858
EPOCH ENDS
EPOCH STARTS
TH0 ROB: 4 LSQ: 0 IQ: 0 IPC: 0.0040
TH1 ROB: 4 LSQ: 1 IQ: 0, IPC: 0.0038
TH2 ROB: 4 LSQ: 4 IQ: 0, IPC: 0.0072
TH3 ROB: 105 LSQ: 63 IQ: 96, IPC: 2.4859
EPOCH ENDS
EPOCH STARTS
TH0 ROB: 4 LSQ: 0 IQ: 0 IPC: 0.0040
TH1 ROB: 4 LSQ: 1 IQ: 0, IPC: 0.0038
TH2 ROB: 4 LSQ: 4 IQ: 0, IPC: 0.0072
TH3 ROB: 105 LSQ: 63 IQ: 96, IPC: 2.4859
EPOCH ENDS
EPOCH STARTS
TH0 ROB: 4 LSQ: 0 IQ: 0 IPC: 0.0039
TH1 ROB: 4 LSQ: 1 IQ: 0, IPC: 0.0038
TH2 ROB: 4 LSQ: 4 IQ: 0, IPC: 0.0072
TH3 ROB: 105 LSQ: 63 IQ: 96, IPC: 2.4860
EPOCH ENDS
EPOCH STARTS
TH0 ROB: 4 LSQ: 0 IQ: 0 IPC: 0.0039
TH1 ROB: 4 LSQ: 1 IQ: 0, IPC: 0.0037
TH2 ROB: 4 LSQ: 4 IQ: 0, IPC: 0.0072
TH3 ROB: 105 LSQ: 63 IQ: 96, IPC: 2.4860
EPOCH ENDS
EPOCH STARTS
TH0 ROB: 4 LSQ: 0 IQ: 0 IPC: 0.0039
TH1 ROB: 4 LSQ: 1 IQ: 0, IPC: 0.0037
TH2 ROB: 4 LSQ: 4 IQ: 0, IPC: 0.0071
TH3 ROB: 105 LSQ: 63 IQ: 96, IPC: 2.4861
EPOCH ENDS
EPOCH STARTS
TH0 ROB: 4 LSQ: 0 IQ: 0 IPC: 0.0039
TH1 ROB: 4 LSQ: 1 IQ: 0, IPC: 0.0037
TH2 ROB: 4 LSQ: 4 IQ: 0, IPC: 0.0071
TH3 ROB: 105 LSQ: 63 IQ: 96, IPC: 2.4862
EPOCH ENDS
EPOCH STARTS
TH0 ROB: 4 LSQ: 0 IQ: 0 IPC: 0.0039
TH1 ROB: 4 LSQ: 1 IQ: 0, IPC: 0.0037
TH2 ROB: 4 LSQ: 4 IQ: 0, IPC: 0.0071
TH3 ROB: 105 LSQ: 63 IQ: 96, IPC: 2.4862
EPOCH ENDS
EPOCH STARTS
TH0 ROB: 4 LSQ: 0 IQ: 0 IPC: 0.0039
TH1 ROB: 4 LSQ: 1 IQ: 0, IPC: 0.0037
TH2 ROB: 4 LSQ: 4 IQ: 0, IPC: 0.0070
TH3 ROB: 105 LSQ: 63 IQ: 96, IPC: 2.4863
EPOCH ENDS
EPOCH STARTS
TH0 ROB: 4 LSQ: 0 IQ: 0 IPC: 0.0039
TH1 ROB: 4 LSQ: 1 IQ: 0, IPC: 0.0037
TH2 ROB: 4 LSQ: 4 IQ: 0, IPC: 0.0070
TH3 ROB: 105 LSQ: 63 IQ: 96, IPC: 2.4863
EPOCH ENDS
EPOCH STARTS
TH0 ROB: 4 LSQ: 0 IQ: 0 IPC: 0.0038
TH1 ROB: 4 LSQ: 1 IQ: 0, IPC: 0.0037
TH2 ROB: 4 LSQ: 4 IQ: 0, IPC: 0.0070
TH3 ROB: 105 LSQ: 63 IQ: 96, IPC: 2.4864
EPOCH ENDS
EPOCH STARTS
TH0 ROB: 4 LSQ: 0 IQ: 0 IPC: 0.0038
TH1 ROB: 4 LSQ: 1 IQ: 0, IPC: 0.0036
TH2 ROB: 4 LSQ: 4 IQ: 0, IPC: 0.0070
TH3 ROB: 105 LSQ: 63 IQ: 96, IPC: 2.4864
EPOCH ENDS
EPOCH STARTS
TH0 ROB: 4 LSQ: 0 IQ: 0 IPC: 0.0038
TH1 ROB: 4 LSQ: 1 IQ: 0, IPC: 0.0036
TH2 ROB: 4 LSQ: 4 IQ: 0, IPC: 0.0069
TH3 ROB: 105 LSQ: 63 IQ: 96, IPC: 2.4865
EPOCH ENDS
EPOCH STARTS
TH0 ROB: 4 LSQ: 0 IQ: 0 IPC: 0.0038
TH1 ROB: 4 LSQ: 1 IQ: 0, IPC: 0.0036
TH2 ROB: 4 LSQ: 4 IQ: 0, IPC: 0.0069
TH3 ROB: 105 LSQ: 63 IQ: 96, IPC: 2.4865
EPOCH ENDS
EPOCH STARTS
TH0 ROB: 4 LSQ: 0 IQ: 0 IPC: 0.0038
TH1 ROB: 4 LSQ: 1 IQ: 0, IPC: 0.0036
TH2 ROB: 4 LSQ: 4 IQ: 0, IPC: 0.0069
TH3 ROB: 105 LSQ: 63 IQ: 96, IPC: 2.4866
EPOCH ENDS
EPOCH STARTS
TH0 ROB: 4 LSQ: 0 IQ: 0 IPC: 0.0038
TH1 ROB: 4 LSQ: 1 IQ: 0, IPC: 0.0036
TH2 ROB: 4 LSQ: 4 IQ: 0, IPC: 0.0069
TH3 ROB: 105 LSQ: 63 IQ: 96, IPC: 2.4866
EPOCH ENDS
EPOCH STARTS
TH0 ROB: 4 LSQ: 0 IQ: 0 IPC: 0.0038
TH1 ROB: 4 LSQ: 1 IQ: 0, IPC: 0.0036
TH2 ROB: 4 LSQ: 4 IQ: 0, IPC: 0.0068
TH3 ROB: 105 LSQ: 63 IQ: 96, IPC: 2.4867
EPOCH ENDS
EPOCH STARTS
TH0 ROB: 4 LSQ: 0 IQ: 0 IPC: 0.0037
TH1 ROB: 4 LSQ: 1 IQ: 0, IPC: 0.0036
TH2 ROB: 4 LSQ: 4 IQ: 0, IPC: 0.0068
TH3 ROB: 105 LSQ: 63 IQ: 96, IPC: 2.4867
EPOCH ENDS
EPOCH STARTS
TH0 ROB: 4 LSQ: 0 IQ: 0 IPC: 0.0037
TH1 ROB: 4 LSQ: 1 IQ: 0, IPC: 0.0035
TH2 ROB: 4 LSQ: 4 IQ: 0, IPC: 0.0068
TH3 ROB: 105 LSQ: 63 IQ: 96, IPC: 2.4868
EPOCH ENDS
EPOCH STARTS
TH0 ROB: 4 LSQ: 0 IQ: 0 IPC: 0.0037
TH1 ROB: 4 LSQ: 1 IQ: 0, IPC: 0.0035
TH2 ROB: 4 LSQ: 4 IQ: 0, IPC: 0.0067
TH3 ROB: 105 LSQ: 63 IQ: 96, IPC: 2.4868
EPOCH ENDS
EPOCH STARTS
TH0 ROB: 4 LSQ: 0 IQ: 0 IPC: 0.0037
TH1 ROB: 4 LSQ: 1 IQ: 0, IPC: 0.0035
TH2 ROB: 4 LSQ: 4 IQ: 0, IPC: 0.0067
TH3 ROB: 105 LSQ: 63 IQ: 96, IPC: 2.4869
EPOCH ENDS
EPOCH STARTS
TH0 ROB: 4 LSQ: 0 IQ: 0 IPC: 0.0037
TH1 ROB: 4 LSQ: 1 IQ: 0, IPC: 0.0035
TH2 ROB: 4 LSQ: 4 IQ: 0, IPC: 0.0067
TH3 ROB: 105 LSQ: 63 IQ: 96, IPC: 2.4869
EPOCH ENDS
EPOCH STARTS
TH0 ROB: 4 LSQ: 0 IQ: 0 IPC: 0.0037
TH1 ROB: 4 LSQ: 1 IQ: 0, IPC: 0.0035
TH2 ROB: 4 LSQ: 4 IQ: 0, IPC: 0.0067
TH3 ROB: 105 LSQ: 63 IQ: 96, IPC: 2.4870
EPOCH ENDS
EPOCH STARTS
TH0 ROB: 4 LSQ: 0 IQ: 0 IPC: 0.0037
TH1 ROB: 4 LSQ: 1 IQ: 0, IPC: 0.0035
TH2 ROB: 4 LSQ: 4 IQ: 0, IPC: 0.0066
TH3 ROB: 105 LSQ: 63 IQ: 96, IPC: 2.4870
EPOCH ENDS
EPOCH STARTS
TH0 ROB: 4 LSQ: 0 IQ: 0 IPC: 0.0036
TH1 ROB: 4 LSQ: 1 IQ: 0, IPC: 0.0035
TH2 ROB: 4 LSQ: 4 IQ: 0, IPC: 0.0066
TH3 ROB: 105 LSQ: 63 IQ: 96, IPC: 2.4871
EPOCH ENDS
EPOCH STARTS
TH0 ROB: 4 LSQ: 0 IQ: 0 IPC: 0.0036
TH1 ROB: 4 LSQ: 1 IQ: 0, IPC: 0.0035
TH2 ROB: 4 LSQ: 4 IQ: 0, IPC: 0.0066
TH3 ROB: 105 LSQ: 63 IQ: 96, IPC: 2.4871
EPOCH ENDS
EPOCH STARTS
TH0 ROB: 4 LSQ: 0 IQ: 0 IPC: 0.0036
TH1 ROB: 4 LSQ: 1 IQ: 0, IPC: 0.0034
TH2 ROB: 4 LSQ: 4 IQ: 0, IPC: 0.0066
TH3 ROB: 105 LSQ: 63 IQ: 96, IPC: 2.4872
EPOCH ENDS
EPOCH STARTS
TH0 ROB: 4 LSQ: 0 IQ: 0 IPC: 0.0036
TH1 ROB: 4 LSQ: 1 IQ: 0, IPC: 0.0034
TH2 ROB: 4 LSQ: 4 IQ: 0, IPC: 0.0065
TH3 ROB: 105 LSQ: 63 IQ: 96, IPC: 2.4872
EPOCH ENDS
EPOCH STARTS
TH0 ROB: 4 LSQ: 0 IQ: 0 IPC: 0.0036
TH1 ROB: 4 LSQ: 1 IQ: 0, IPC: 0.0034
TH2 ROB: 4 LSQ: 4 IQ: 0, IPC: 0.0065
TH3 ROB: 105 LSQ: 63 IQ: 96, IPC: 2.4873
EPOCH ENDS
EPOCH STARTS
TH0 ROB: 4 LSQ: 0 IQ: 0 IPC: 0.0036
TH1 ROB: 4 LSQ: 1 IQ: 0, IPC: 0.0034
TH2 ROB: 4 LSQ: 4 IQ: 0, IPC: 0.0065
TH3 ROB: 105 LSQ: 63 IQ: 96, IPC: 2.4873
EPOCH ENDS
EPOCH STARTS
TH0 ROB: 4 LSQ: 0 IQ: 0 IPC: 0.0036
TH1 ROB: 4 LSQ: 1 IQ: 0, IPC: 0.0034
TH2 ROB: 4 LSQ: 4 IQ: 0, IPC: 0.0065
TH3 ROB: 105 LSQ: 63 IQ: 96, IPC: 2.4874
EPOCH ENDS
EPOCH STARTS
TH0 ROB: 4 LSQ: 0 IQ: 0 IPC: 0.0035
TH1 ROB: 4 LSQ: 1 IQ: 0, IPC: 0.0034
TH2 ROB: 4 LSQ: 4 IQ: 0, IPC: 0.0065
TH3 ROB: 105 LSQ: 63 IQ: 96, IPC: 2.4874
EPOCH ENDS
EPOCH STARTS
TH0 ROB: 4 LSQ: 0 IQ: 0 IPC: 0.0035
TH1 ROB: 4 LSQ: 1 IQ: 0, IPC: 0.0034
TH2 ROB: 4 LSQ: 4 IQ: 0, IPC: 0.0064
TH3 ROB: 105 LSQ: 63 IQ: 96, IPC: 2.4875
EPOCH ENDS
EPOCH STARTS
TH0 ROB: 4 LSQ: 0 IQ: 0 IPC: 0.0035
TH1 ROB: 4 LSQ: 1 IQ: 0, IPC: 0.0034
TH2 ROB: 4 LSQ: 4 IQ: 0, IPC: 0.0064
TH3 ROB: 105 LSQ: 63 IQ: 96, IPC: 2.4875
EPOCH ENDS
EPOCH STARTS
TH0 ROB: 4 LSQ: 0 IQ: 0 IPC: 0.0035
TH1 ROB: 4 LSQ: 1 IQ: 0, IPC: 0.0033
TH2 ROB: 4 LSQ: 4 IQ: 0, IPC: 0.0064
TH3 ROB: 105 LSQ: 63 IQ: 96, IPC: 2.4876
EPOCH ENDS
EPOCH STARTS
TH0 ROB: 4 LSQ: 0 IQ: 0 IPC: 0.0035
TH1 ROB: 4 LSQ: 1 IQ: 0, IPC: 0.0033
TH2 ROB: 4 LSQ: 4 IQ: 0, IPC: 0.0064
TH3 ROB: 105 LSQ: 63 IQ: 96, IPC: 2.4876
EPOCH ENDS
EPOCH STARTS
TH0 ROB: 4 LSQ: 0 IQ: 0 IPC: 0.0035
TH1 ROB: 4 LSQ: 1 IQ: 0, IPC: 0.0033
TH2 ROB: 4 LSQ: 4 IQ: 0, IPC: 0.0063
TH3 ROB: 105 LSQ: 63 IQ: 96, IPC: 2.4876
EPOCH ENDS
EPOCH STARTS
TH0 ROB: 4 LSQ: 0 IQ: 0 IPC: 0.0035
TH1 ROB: 4 LSQ: 1 IQ: 0, IPC: 0.0033
TH2 ROB: 4 LSQ: 4 IQ: 0, IPC: 0.0063
TH3 ROB: 105 LSQ: 63 IQ: 96, IPC: 2.4877
EPOCH ENDS
EPOCH STARTS
TH0 ROB: 4 LSQ: 0 IQ: 0 IPC: 0.0035
TH1 ROB: 4 LSQ: 1 IQ: 0, IPC: 0.0033
TH2 ROB: 4 LSQ: 4 IQ: 0, IPC: 0.0063
TH3 ROB: 105 LSQ: 63 IQ: 96, IPC: 2.4877
EPOCH ENDS
EPOCH STARTS
TH0 ROB: 4 LSQ: 0 IQ: 0 IPC: 0.0034
TH1 ROB: 4 LSQ: 1 IQ: 0, IPC: 0.0033
TH2 ROB: 4 LSQ: 4 IQ: 0, IPC: 0.0063
TH3 ROB: 105 LSQ: 63 IQ: 96, IPC: 2.4878
EPOCH ENDS
EPOCH STARTS
TH0 ROB: 4 LSQ: 0 IQ: 0 IPC: 0.0034
TH1 ROB: 4 LSQ: 1 IQ: 0, IPC: 0.0033
TH2 ROB: 4 LSQ: 4 IQ: 0, IPC: 0.0062
TH3 ROB: 105 LSQ: 63 IQ: 96, IPC: 2.4878
EPOCH ENDS
EPOCH STARTS
TH0 ROB: 4 LSQ: 0 IQ: 0 IPC: 0.0034
TH1 ROB: 4 LSQ: 1 IQ: 0, IPC: 0.0033
TH2 ROB: 4 LSQ: 4 IQ: 0, IPC: 0.0062
TH3 ROB: 105 LSQ: 63 IQ: 96, IPC: 2.4879
EPOCH ENDS
EPOCH STARTS
TH0 ROB: 4 LSQ: 0 IQ: 0 IPC: 0.0034
TH1 ROB: 4 LSQ: 1 IQ: 0, IPC: 0.0032
TH2 ROB: 4 LSQ: 4 IQ: 0, IPC: 0.0062
TH3 ROB: 105 LSQ: 63 IQ: 96, IPC: 2.4879
EPOCH ENDS
EPOCH STARTS
TH0 ROB: 4 LSQ: 0 IQ: 0 IPC: 0.0034
TH1 ROB: 4 LSQ: 1 IQ: 0, IPC: 0.0032
TH2 ROB: 4 LSQ: 4 IQ: 0, IPC: 0.0062
TH3 ROB: 105 LSQ: 63 IQ: 96, IPC: 2.4879
EPOCH ENDS
EPOCH STARTS
TH0 ROB: 4 LSQ: 0 IQ: 0 IPC: 0.0034
TH1 ROB: 4 LSQ: 1 IQ: 0, IPC: 0.0032
TH2 ROB: 4 LSQ: 4 IQ: 0, IPC: 0.0062
TH3 ROB: 105 LSQ: 63 IQ: 96, IPC: 2.4880
EPOCH ENDS
EPOCH STARTS
TH0 ROB: 4 LSQ: 0 IQ: 0 IPC: 0.0034
TH1 ROB: 4 LSQ: 1 IQ: 0, IPC: 0.0032
TH2 ROB: 4 LSQ: 4 IQ: 0, IPC: 0.0061
TH3 ROB: 105 LSQ: 63 IQ: 96, IPC: 2.4880
EPOCH ENDS
EPOCH STARTS
TH0 ROB: 4 LSQ: 0 IQ: 0 IPC: 0.0034
TH1 ROB: 4 LSQ: 1 IQ: 0, IPC: 0.0032
TH2 ROB: 4 LSQ: 4 IQ: 0, IPC: 0.0061
TH3 ROB: 105 LSQ: 63 IQ: 96, IPC: 2.4881
EPOCH ENDS
EPOCH STARTS
TH0 ROB: 4 LSQ: 0 IQ: 0 IPC: 0.0034
TH1 ROB: 4 LSQ: 1 IQ: 0, IPC: 0.0032
TH2 ROB: 4 LSQ: 4 IQ: 0, IPC: 0.0061
TH3 ROB: 105 LSQ: 63 IQ: 96, IPC: 2.4881
EPOCH ENDS
EPOCH STARTS
TH0 ROB: 4 LSQ: 0 IQ: 0 IPC: 0.0033
TH1 ROB: 4 LSQ: 1 IQ: 0, IPC: 0.0032
TH2 ROB: 4 LSQ: 4 IQ: 0, IPC: 0.0061
TH3 ROB: 105 LSQ: 63 IQ: 96, IPC: 2.4881
EPOCH ENDS
EPOCH STARTS
TH0 ROB: 4 LSQ: 0 IQ: 0 IPC: 0.0033
TH1 ROB: 4 LSQ: 1 IQ: 0, IPC: 0.0032
TH2 ROB: 4 LSQ: 4 IQ: 0, IPC: 0.0061
TH3 ROB: 105 LSQ: 63 IQ: 96, IPC: 2.4882
EPOCH ENDS
EPOCH STARTS
TH0 ROB: 4 LSQ: 0 IQ: 0 IPC: 0.0033
TH1 ROB: 4 LSQ: 1 IQ: 0, IPC: 0.0032
TH2 ROB: 4 LSQ: 4 IQ: 0, IPC: 0.0060
TH3 ROB: 105 LSQ: 63 IQ: 96, IPC: 2.4882
EPOCH ENDS
EPOCH STARTS
TH0 ROB: 4 LSQ: 0 IQ: 0 IPC: 0.0033
TH1 ROB: 4 LSQ: 1 IQ: 0, IPC: 0.0032
TH2 ROB: 4 LSQ: 4 IQ: 0, IPC: 0.0060
TH3 ROB: 105 LSQ: 63 IQ: 96, IPC: 2.4883
EPOCH ENDS
EPOCH STARTS
TH0 ROB: 4 LSQ: 0 IQ: 0 IPC: 0.0033
TH1 ROB: 4 LSQ: 1 IQ: 0, IPC: 0.0031
TH2 ROB: 4 LSQ: 4 IQ: 0, IPC: 0.0060
TH3 ROB: 105 LSQ: 63 IQ: 96, IPC: 2.4883
EPOCH ENDS
EPOCH STARTS
TH0 ROB: 4 LSQ: 0 IQ: 0 IPC: 0.0033
TH1 ROB: 4 LSQ: 1 IQ: 0, IPC: 0.0031
TH2 ROB: 4 LSQ: 4 IQ: 0, IPC: 0.0060
TH3 ROB: 105 LSQ: 63 IQ: 96, IPC: 2.4883
EPOCH ENDS
EPOCH STARTS
TH0 ROB: 4 LSQ: 0 IQ: 0 IPC: 0.0033
TH1 ROB: 4 LSQ: 1 IQ: 0, IPC: 0.0031
TH2 ROB: 4 LSQ: 4 IQ: 0, IPC: 0.0060
TH3 ROB: 105 LSQ: 63 IQ: 96, IPC: 2.4884
EPOCH ENDS
EPOCH STARTS
TH0 ROB: 4 LSQ: 0 IQ: 0 IPC: 0.0033
TH1 ROB: 4 LSQ: 1 IQ: 0, IPC: 0.0031
TH2 ROB: 4 LSQ: 4 IQ: 0, IPC: 0.0059
TH3 ROB: 105 LSQ: 63 IQ: 96, IPC: 2.4884
EPOCH ENDS
EPOCH STARTS
TH0 ROB: 4 LSQ: 0 IQ: 0 IPC: 0.0033
TH1 ROB: 4 LSQ: 1 IQ: 0, IPC: 0.0031
TH2 ROB: 4 LSQ: 4 IQ: 0, IPC: 0.0059
TH3 ROB: 105 LSQ: 63 IQ: 96, IPC: 2.4885
EPOCH ENDS
EPOCH STARTS
TH0 ROB: 4 LSQ: 0 IQ: 0 IPC: 0.0032
TH1 ROB: 4 LSQ: 1 IQ: 0, IPC: 0.0031
TH2 ROB: 4 LSQ: 4 IQ: 0, IPC: 0.0059
TH3 ROB: 105 LSQ: 63 IQ: 96, IPC: 2.4885
EPOCH ENDS
EPOCH STARTS
TH0 ROB: 4 LSQ: 0 IQ: 0 IPC: 0.0032
TH1 ROB: 4 LSQ: 1 IQ: 0, IPC: 0.0031
TH2 ROB: 4 LSQ: 4 IQ: 0, IPC: 0.0059
TH3 ROB: 105 LSQ: 63 IQ: 96, IPC: 2.4885
EPOCH ENDS
EPOCH STARTS
TH0 ROB: 4 LSQ: 0 IQ: 0 IPC: 0.0032
TH1 ROB: 4 LSQ: 1 IQ: 0, IPC: 0.0031
TH2 ROB: 4 LSQ: 4 IQ: 0, IPC: 0.0059
TH3 ROB: 105 LSQ: 63 IQ: 96, IPC: 2.4886
EPOCH ENDS
EPOCH STARTS
TH0 ROB: 4 LSQ: 0 IQ: 0 IPC: 0.0032
TH1 ROB: 4 LSQ: 1 IQ: 0, IPC: 0.0031
TH2 ROB: 4 LSQ: 4 IQ: 0, IPC: 0.0058
TH3 ROB: 105 LSQ: 63 IQ: 96, IPC: 2.4886
EPOCH ENDS
EPOCH STARTS
TH0 ROB: 4 LSQ: 0 IQ: 0 IPC: 0.0032
TH1 ROB: 4 LSQ: 1 IQ: 0, IPC: 0.0030
TH2 ROB: 4 LSQ: 4 IQ: 0, IPC: 0.0058
TH3 ROB: 105 LSQ: 63 IQ: 96, IPC: 2.4887
EPOCH ENDS
EPOCH STARTS
TH0 ROB: 4 LSQ: 0 IQ: 0 IPC: 0.0032
TH1 ROB: 4 LSQ: 1 IQ: 0, IPC: 0.0030
TH2 ROB: 4 LSQ: 4 IQ: 0, IPC: 0.0058
TH3 ROB: 105 LSQ: 63 IQ: 96, IPC: 2.4887
EPOCH ENDS
EPOCH STARTS
TH0 ROB: 4 LSQ: 0 IQ: 0 IPC: 0.0032
TH1 ROB: 4 LSQ: 1 IQ: 0, IPC: 0.0030
TH2 ROB: 4 LSQ: 4 IQ: 0, IPC: 0.0058
TH3 ROB: 105 LSQ: 63 IQ: 96, IPC: 2.4887
EPOCH ENDS
EPOCH STARTS
TH0 ROB: 4 LSQ: 0 IQ: 0 IPC: 0.0032
TH1 ROB: 4 LSQ: 1 IQ: 0, IPC: 0.0030
TH2 ROB: 4 LSQ: 4 IQ: 0, IPC: 0.0058
TH3 ROB: 105 LSQ: 63 IQ: 96, IPC: 2.4888
EPOCH ENDS
EPOCH STARTS
TH0 ROB: 4 LSQ: 0 IQ: 0 IPC: 0.0032
TH1 ROB: 4 LSQ: 1 IQ: 0, IPC: 0.0030
TH2 ROB: 4 LSQ: 4 IQ: 0, IPC: 0.0057
TH3 ROB: 105 LSQ: 63 IQ: 96, IPC: 2.4888
EPOCH ENDS
EPOCH STARTS
TH0 ROB: 4 LSQ: 0 IQ: 0 IPC: 0.0031
TH1 ROB: 4 LSQ: 1 IQ: 0, IPC: 0.0030
TH2 ROB: 4 LSQ: 4 IQ: 0, IPC: 0.0057
TH3 ROB: 105 LSQ: 63 IQ: 96, IPC: 2.4888
EPOCH ENDS
EPOCH STARTS
TH0 ROB: 4 LSQ: 0 IQ: 0 IPC: 0.0031
TH1 ROB: 4 LSQ: 1 IQ: 0, IPC: 0.0030
TH2 ROB: 4 LSQ: 4 IQ: 0, IPC: 0.0057
TH3 ROB: 105 LSQ: 63 IQ: 96, IPC: 2.4889
EPOCH ENDS
EPOCH STARTS
TH0 ROB: 4 LSQ: 0 IQ: 0 IPC: 0.0031
TH1 ROB: 4 LSQ: 1 IQ: 0, IPC: 0.0030
TH2 ROB: 4 LSQ: 4 IQ: 0, IPC: 0.0057
TH3 ROB: 105 LSQ: 63 IQ: 96, IPC: 2.4889
EPOCH ENDS
EPOCH STARTS
TH0 ROB: 4 LSQ: 0 IQ: 0 IPC: 0.0031
TH1 ROB: 4 LSQ: 1 IQ: 0, IPC: 0.0030
TH2 ROB: 4 LSQ: 4 IQ: 0, IPC: 0.0057
TH3 ROB: 105 LSQ: 63 IQ: 96, IPC: 2.4889
EPOCH ENDS
EPOCH STARTS
TH0 ROB: 4 LSQ: 0 IQ: 0 IPC: 0.0031
TH1 ROB: 4 LSQ: 1 IQ: 0, IPC: 0.0030
TH2 ROB: 4 LSQ: 4 IQ: 0, IPC: 0.0057
TH3 ROB: 105 LSQ: 63 IQ: 96, IPC: 2.4890
EPOCH ENDS
EPOCH STARTS
TH0 ROB: 4 LSQ: 0 IQ: 0 IPC: 0.0031
TH1 ROB: 4 LSQ: 1 IQ: 0, IPC: 0.0030
TH2 ROB: 4 LSQ: 4 IQ: 0, IPC: 0.0056
TH3 ROB: 105 LSQ: 63 IQ: 96, IPC: 2.4890
EPOCH ENDS
EPOCH STARTS
TH0 ROB: 4 LSQ: 0 IQ: 0 IPC: 0.0031
TH1 ROB: 4 LSQ: 1 IQ: 0, IPC: 0.0029
TH2 ROB: 4 LSQ: 4 IQ: 0, IPC: 0.0056
TH3 ROB: 105 LSQ: 63 IQ: 96, IPC: 2.4890
EPOCH ENDS
EPOCH STARTS
TH0 ROB: 4 LSQ: 0 IQ: 0 IPC: 0.0031
TH1 ROB: 4 LSQ: 1 IQ: 0, IPC: 0.0029
TH2 ROB: 4 LSQ: 4 IQ: 0, IPC: 0.0056
TH3 ROB: 105 LSQ: 63 IQ: 96, IPC: 2.4891
EPOCH ENDS
EPOCH STARTS
TH0 ROB: 4 LSQ: 0 IQ: 0 IPC: 0.0031
TH1 ROB: 4 LSQ: 1 IQ: 0, IPC: 0.0029
TH2 ROB: 4 LSQ: 4 IQ: 0, IPC: 0.0056
TH3 ROB: 105 LSQ: 63 IQ: 96, IPC: 2.4891
EPOCH ENDS
EPOCH STARTS
TH0 ROB: 4 LSQ: 0 IQ: 0 IPC: 0.0031
TH1 ROB: 4 LSQ: 1 IQ: 0, IPC: 0.0029
TH2 ROB: 4 LSQ: 4 IQ: 0, IPC: 0.0056
TH3 ROB: 105 LSQ: 63 IQ: 96, IPC: 2.4892
EPOCH ENDS
EPOCH STARTS
TH0 ROB: 4 LSQ: 0 IQ: 0 IPC: 0.0030
TH1 ROB: 4 LSQ: 1 IQ: 0, IPC: 0.0029
TH2 ROB: 4 LSQ: 4 IQ: 0, IPC: 0.0055
TH3 ROB: 105 LSQ: 63 IQ: 96, IPC: 2.4892
EPOCH ENDS
EPOCH STARTS
TH0 ROB: 4 LSQ: 0 IQ: 0 IPC: 0.0030
TH1 ROB: 4 LSQ: 1 IQ: 0, IPC: 0.0029
TH2 ROB: 4 LSQ: 4 IQ: 0, IPC: 0.0055
TH3 ROB: 105 LSQ: 63 IQ: 96, IPC: 2.4892
EPOCH ENDS
EPOCH STARTS
TH0 ROB: 4 LSQ: 0 IQ: 0 IPC: 0.0030
TH1 ROB: 4 LSQ: 1 IQ: 0, IPC: 0.0029
TH2 ROB: 4 LSQ: 4 IQ: 0, IPC: 0.0055
TH3 ROB: 105 LSQ: 63 IQ: 96, IPC: 2.4893
EPOCH ENDS
EPOCH STARTS
TH0 ROB: 4 LSQ: 0 IQ: 0 IPC: 0.0030
TH1 ROB: 4 LSQ: 1 IQ: 0, IPC: 0.0029
TH2 ROB: 4 LSQ: 4 IQ: 0, IPC: 0.0055
TH3 ROB: 105 LSQ: 63 IQ: 96, IPC: 2.4893
EPOCH ENDS
EPOCH STARTS
TH0 ROB: 4 LSQ: 0 IQ: 0 IPC: 0.0030
TH1 ROB: 4 LSQ: 1 IQ: 0, IPC: 0.0029
TH2 ROB: 4 LSQ: 4 IQ: 0, IPC: 0.0055
TH3 ROB: 105 LSQ: 63 IQ: 96, IPC: 2.4893
EPOCH ENDS
EPOCH STARTS
TH0 ROB: 4 LSQ: 0 IQ: 0 IPC: 0.0030
TH1 ROB: 4 LSQ: 1 IQ: 0, IPC: 0.0029
TH2 ROB: 4 LSQ: 4 IQ: 0, IPC: 0.0055
TH3 ROB: 105 LSQ: 63 IQ: 96, IPC: 2.4894
EPOCH ENDS
EPOCH STARTS
TH0 ROB: 4 LSQ: 0 IQ: 0 IPC: 0.0030
TH1 ROB: 4 LSQ: 1 IQ: 0, IPC: 0.0029
TH2 ROB: 4 LSQ: 4 IQ: 0, IPC: 0.0054
TH3 ROB: 105 LSQ: 63 IQ: 96, IPC: 2.4894
EPOCH ENDS
EPOCH STARTS
TH0 ROB: 4 LSQ: 0 IQ: 0 IPC: 0.0030
TH1 ROB: 4 LSQ: 1 IQ: 0, IPC: 0.0028
TH2 ROB: 4 LSQ: 4 IQ: 0, IPC: 0.0054
TH3 ROB: 105 LSQ: 63 IQ: 96, IPC: 2.4894
EPOCH ENDS
EPOCH STARTS
TH0 ROB: 4 LSQ: 0 IQ: 0 IPC: 0.0030
TH1 ROB: 4 LSQ: 1 IQ: 0, IPC: 0.0028
TH2 ROB: 4 LSQ: 4 IQ: 0, IPC: 0.0054
TH3 ROB: 105 LSQ: 63 IQ: 96, IPC: 2.4894
EPOCH ENDS
EPOCH STARTS
TH0 ROB: 4 LSQ: 0 IQ: 0 IPC: 0.0030
TH1 ROB: 4 LSQ: 1 IQ: 0, IPC: 0.0028
TH2 ROB: 4 LSQ: 4 IQ: 0, IPC: 0.0054
TH3 ROB: 105 LSQ: 63 IQ: 96, IPC: 2.4895
EPOCH ENDS
EPOCH STARTS
TH0 ROB: 4 LSQ: 0 IQ: 0 IPC: 0.0030
TH1 ROB: 4 LSQ: 1 IQ: 0, IPC: 0.0028
TH2 ROB: 4 LSQ: 4 IQ: 0, IPC: 0.0054
TH3 ROB: 105 LSQ: 63 IQ: 96, IPC: 2.4895
EPOCH ENDS
EPOCH STARTS
TH0 ROB: 4 LSQ: 0 IQ: 0 IPC: 0.0029
TH1 ROB: 4 LSQ: 1 IQ: 0, IPC: 0.0028
TH2 ROB: 4 LSQ: 4 IQ: 0, IPC: 0.0054
TH3 ROB: 105 LSQ: 63 IQ: 96, IPC: 2.4895
EPOCH ENDS
EPOCH STARTS
TH0 ROB: 4 LSQ: 0 IQ: 0 IPC: 0.0029
TH1 ROB: 4 LSQ: 1 IQ: 0, IPC: 0.0028
TH2 ROB: 4 LSQ: 4 IQ: 0, IPC: 0.0053
TH3 ROB: 105 LSQ: 63 IQ: 96, IPC: 2.4896
EPOCH ENDS
EPOCH STARTS
TH0 ROB: 4 LSQ: 0 IQ: 0 IPC: 0.0029
TH1 ROB: 4 LSQ: 1 IQ: 0, IPC: 0.0028
TH2 ROB: 4 LSQ: 4 IQ: 0, IPC: 0.0053
TH3 ROB: 105 LSQ: 63 IQ: 96, IPC: 2.4896
EPOCH ENDS
EPOCH STARTS
TH0 ROB: 4 LSQ: 0 IQ: 0 IPC: 0.0029
TH1 ROB: 4 LSQ: 1 IQ: 0, IPC: 0.0028
TH2 ROB: 4 LSQ: 4 IQ: 0, IPC: 0.0053
TH3 ROB: 105 LSQ: 63 IQ: 96, IPC: 2.4896
EPOCH ENDS
EPOCH STARTS
TH0 ROB: 4 LSQ: 0 IQ: 0 IPC: 0.0029
TH1 ROB: 4 LSQ: 1 IQ: 0, IPC: 0.0028
TH2 ROB: 4 LSQ: 4 IQ: 0, IPC: 0.0053
TH3 ROB: 105 LSQ: 63 IQ: 96, IPC: 2.4897
EPOCH ENDS
EPOCH STARTS
TH0 ROB: 4 LSQ: 0 IQ: 0 IPC: 0.0029
TH1 ROB: 4 LSQ: 1 IQ: 0, IPC: 0.0028
TH2 ROB: 4 LSQ: 4 IQ: 0, IPC: 0.0053
TH3 ROB: 105 LSQ: 63 IQ: 96, IPC: 2.4897
EPOCH ENDS
EPOCH STARTS
TH0 ROB: 4 LSQ: 0 IQ: 0 IPC: 0.0029
TH1 ROB: 4 LSQ: 1 IQ: 0, IPC: 0.0028
TH2 ROB: 4 LSQ: 4 IQ: 0, IPC: 0.0053
TH3 ROB: 105 LSQ: 63 IQ: 96, IPC: 2.4897
EPOCH ENDS
EPOCH STARTS
TH0 ROB: 4 LSQ: 0 IQ: 0 IPC: 0.0029
TH1 ROB: 4 LSQ: 1 IQ: 0, IPC: 0.0027
TH2 ROB: 4 LSQ: 4 IQ: 0, IPC: 0.0053
TH3 ROB: 105 LSQ: 63 IQ: 96, IPC: 2.4898
EPOCH ENDS
EPOCH STARTS
TH0 ROB: 4 LSQ: 0 IQ: 0 IPC: 0.0029
TH1 ROB: 4 LSQ: 1 IQ: 0, IPC: 0.0027
TH2 ROB: 4 LSQ: 4 IQ: 0, IPC: 0.0052
TH3 ROB: 105 LSQ: 63 IQ: 96, IPC: 2.4898
EPOCH ENDS
EPOCH STARTS
TH0 ROB: 4 LSQ: 0 IQ: 0 IPC: 0.0029
TH1 ROB: 4 LSQ: 1 IQ: 0, IPC: 0.0027
TH2 ROB: 4 LSQ: 4 IQ: 0, IPC: 0.0052
TH3 ROB: 105 LSQ: 63 IQ: 96, IPC: 2.4898
EPOCH ENDS
EPOCH STARTS
TH0 ROB: 4 LSQ: 0 IQ: 0 IPC: 0.0029
TH1 ROB: 4 LSQ: 1 IQ: 0, IPC: 0.0027
TH2 ROB: 4 LSQ: 4 IQ: 0, IPC: 0.0052
TH3 ROB: 105 LSQ: 63 IQ: 96, IPC: 2.4899
EPOCH ENDS
EPOCH STARTS
TH0 ROB: 4 LSQ: 0 IQ: 0 IPC: 0.0029
TH1 ROB: 4 LSQ: 1 IQ: 0, IPC: 0.0027
TH2 ROB: 4 LSQ: 4 IQ: 0, IPC: 0.0052
TH3 ROB: 105 LSQ: 63 IQ: 96, IPC: 2.4899
EPOCH ENDS
EPOCH STARTS
TH0 ROB: 4 LSQ: 0 IQ: 0 IPC: 0.0028
TH1 ROB: 4 LSQ: 1 IQ: 0, IPC: 0.0027
TH2 ROB: 4 LSQ: 4 IQ: 0, IPC: 0.0052
TH3 ROB: 105 LSQ: 63 IQ: 96, IPC: 2.4899
EPOCH ENDS
EPOCH STARTS
TH0 ROB: 4 LSQ: 0 IQ: 0 IPC: 0.0028
TH1 ROB: 4 LSQ: 1 IQ: 0, IPC: 0.0027
TH2 ROB: 4 LSQ: 4 IQ: 0, IPC: 0.0052
TH3 ROB: 105 LSQ: 63 IQ: 96, IPC: 2.4899
EPOCH ENDS
EPOCH STARTS
TH0 ROB: 4 LSQ: 0 IQ: 0 IPC: 0.0028
TH1 ROB: 4 LSQ: 1 IQ: 0, IPC: 0.0027
TH2 ROB: 4 LSQ: 4 IQ: 0, IPC: 0.0051
TH3 ROB: 105 LSQ: 63 IQ: 96, IPC: 2.4900
EPOCH ENDS
EPOCH STARTS
TH0 ROB: 4 LSQ: 0 IQ: 0 IPC: 0.0028
TH1 ROB: 4 LSQ: 1 IQ: 0, IPC: 0.0027
TH2 ROB: 4 LSQ: 4 IQ: 0, IPC: 0.0051
TH3 ROB: 105 LSQ: 63 IQ: 96, IPC: 2.4900
EPOCH ENDS
EPOCH STARTS
TH0 ROB: 4 LSQ: 0 IQ: 0 IPC: 0.0028
TH1 ROB: 4 LSQ: 1 IQ: 0, IPC: 0.0027
TH2 ROB: 4 LSQ: 4 IQ: 0, IPC: 0.0051
TH3 ROB: 105 LSQ: 63 IQ: 96, IPC: 2.4900
EPOCH ENDS
EPOCH STARTS
TH0 ROB: 4 LSQ: 0 IQ: 0 IPC: 0.0028
TH1 ROB: 4 LSQ: 1 IQ: 0, IPC: 0.0027
TH2 ROB: 4 LSQ: 4 IQ: 0, IPC: 0.0051
TH3 ROB: 105 LSQ: 63 IQ: 96, IPC: 2.4901
EPOCH ENDS
EPOCH STARTS
TH0 ROB: 4 LSQ: 0 IQ: 0 IPC: 0.0028
TH1 ROB: 4 LSQ: 1 IQ: 0, IPC: 0.0027
TH2 ROB: 4 LSQ: 4 IQ: 0, IPC: 0.0051
TH3 ROB: 105 LSQ: 63 IQ: 96, IPC: 2.4901
EPOCH ENDS
EPOCH STARTS
TH0 ROB: 4 LSQ: 0 IQ: 0 IPC: 0.0028
TH1 ROB: 4 LSQ: 1 IQ: 0, IPC: 0.0027
TH2 ROB: 4 LSQ: 4 IQ: 0, IPC: 0.0051
TH3 ROB: 105 LSQ: 63 IQ: 96, IPC: 2.4901
EPOCH ENDS
EPOCH STARTS
TH0 ROB: 4 LSQ: 0 IQ: 0 IPC: 0.0028
TH1 ROB: 4 LSQ: 1 IQ: 0, IPC: 0.0026
TH2 ROB: 4 LSQ: 4 IQ: 0, IPC: 0.0051
TH3 ROB: 105 LSQ: 63 IQ: 96, IPC: 2.4901
EPOCH ENDS
EPOCH STARTS
TH0 ROB: 4 LSQ: 0 IQ: 0 IPC: 0.0028
TH1 ROB: 4 LSQ: 1 IQ: 0, IPC: 0.0026
TH2 ROB: 4 LSQ: 4 IQ: 0, IPC: 0.0050
TH3 ROB: 105 LSQ: 63 IQ: 96, IPC: 2.4902
EPOCH ENDS
EPOCH STARTS
TH0 ROB: 4 LSQ: 0 IQ: 0 IPC: 0.0028
TH1 ROB: 4 LSQ: 1 IQ: 0, IPC: 0.0026
TH2 ROB: 4 LSQ: 4 IQ: 0, IPC: 0.0050
TH3 ROB: 105 LSQ: 63 IQ: 96, IPC: 2.4902
EPOCH ENDS
EPOCH STARTS
TH0 ROB: 4 LSQ: 0 IQ: 0 IPC: 0.0028
TH1 ROB: 4 LSQ: 1 IQ: 0, IPC: 0.0026
TH2 ROB: 4 LSQ: 4 IQ: 0, IPC: 0.0050
TH3 ROB: 105 LSQ: 63 IQ: 96, IPC: 2.4902
EPOCH ENDS
EPOCH STARTS
TH0 ROB: 4 LSQ: 0 IQ: 0 IPC: 0.0027
TH1 ROB: 4 LSQ: 1 IQ: 0, IPC: 0.0026
TH2 ROB: 4 LSQ: 4 IQ: 0, IPC: 0.0050
TH3 ROB: 105 LSQ: 63 IQ: 96, IPC: 2.4903
EPOCH ENDS
EPOCH STARTS
TH0 ROB: 4 LSQ: 0 IQ: 0 IPC: 0.0027
TH1 ROB: 4 LSQ: 1 IQ: 0, IPC: 0.0026
TH2 ROB: 4 LSQ: 4 IQ: 0, IPC: 0.0050
TH3 ROB: 105 LSQ: 63 IQ: 96, IPC: 2.4903
EPOCH ENDS
EPOCH STARTS
TH0 ROB: 4 LSQ: 0 IQ: 0 IPC: 0.0027
TH1 ROB: 4 LSQ: 1 IQ: 0, IPC: 0.0026
TH2 ROB: 4 LSQ: 4 IQ: 0, IPC: 0.0050
TH3 ROB: 105 LSQ: 63 IQ: 96, IPC: 2.4903
EPOCH ENDS
EPOCH STARTS
TH0 ROB: 4 LSQ: 0 IQ: 0 IPC: 0.0027
TH1 ROB: 4 LSQ: 1 IQ: 0, IPC: 0.0026
TH2 ROB: 4 LSQ: 4 IQ: 0, IPC: 0.0050
TH3 ROB: 105 LSQ: 63 IQ: 96, IPC: 2.4903
EPOCH ENDS
EPOCH STARTS
TH0 ROB: 4 LSQ: 0 IQ: 0 IPC: 0.0027
TH1 ROB: 4 LSQ: 1 IQ: 0, IPC: 0.0026
TH2 ROB: 4 LSQ: 4 IQ: 0, IPC: 0.0049
TH3 ROB: 105 LSQ: 63 IQ: 96, IPC: 2.4904
EPOCH ENDS
EPOCH STARTS
TH0 ROB: 4 LSQ: 0 IQ: 0 IPC: 0.0027
TH1 ROB: 4 LSQ: 1 IQ: 0, IPC: 0.0026
TH2 ROB: 4 LSQ: 4 IQ: 0, IPC: 0.0049
TH3 ROB: 105 LSQ: 63 IQ: 96, IPC: 2.4904
EPOCH ENDS
EPOCH STARTS
TH0 ROB: 4 LSQ: 0 IQ: 0 IPC: 0.0027
TH1 ROB: 4 LSQ: 1 IQ: 0, IPC: 0.0026
TH2 ROB: 4 LSQ: 4 IQ: 0, IPC: 0.0049
TH3 ROB: 105 LSQ: 63 IQ: 96, IPC: 2.4904
EPOCH ENDS
EPOCH STARTS
TH0 ROB: 4 LSQ: 0 IQ: 0 IPC: 0.0027
TH1 ROB: 4 LSQ: 1 IQ: 0, IPC: 0.0026
TH2 ROB: 4 LSQ: 4 IQ: 0, IPC: 0.0049
TH3 ROB: 105 LSQ: 63 IQ: 96, IPC: 2.4904
EPOCH ENDS
EPOCH STARTS
TH0 ROB: 4 LSQ: 0 IQ: 0 IPC: 0.0027
TH1 ROB: 4 LSQ: 1 IQ: 0, IPC: 0.0026
TH2 ROB: 4 LSQ: 4 IQ: 0, IPC: 0.0049
TH3 ROB: 105 LSQ: 63 IQ: 96, IPC: 2.4905
EPOCH ENDS
EPOCH STARTS
TH0 ROB: 4 LSQ: 0 IQ: 0 IPC: 0.0027
TH1 ROB: 4 LSQ: 1 IQ: 0, IPC: 0.0026
TH2 ROB: 4 LSQ: 4 IQ: 0, IPC: 0.0049
TH3 ROB: 105 LSQ: 63 IQ: 96, IPC: 2.4905
EPOCH ENDS
EPOCH STARTS
TH0 ROB: 4 LSQ: 0 IQ: 0 IPC: 0.0027
TH1 ROB: 4 LSQ: 1 IQ: 0, IPC: 0.0025
TH2 ROB: 4 LSQ: 4 IQ: 0, IPC: 0.0049
TH3 ROB: 105 LSQ: 63 IQ: 96, IPC: 2.4905
EPOCH ENDS
EPOCH STARTS
TH0 ROB: 4 LSQ: 0 IQ: 0 IPC: 0.0027
TH1 ROB: 4 LSQ: 1 IQ: 0, IPC: 0.0025
TH2 ROB: 4 LSQ: 4 IQ: 0, IPC: 0.0048
TH3 ROB: 105 LSQ: 63 IQ: 96, IPC: 2.4905
EPOCH ENDS
EPOCH STARTS
TH0 ROB: 4 LSQ: 0 IQ: 0 IPC: 0.0027
TH1 ROB: 4 LSQ: 1 IQ: 0, IPC: 0.0025
TH2 ROB: 4 LSQ: 4 IQ: 0, IPC: 0.0048
TH3 ROB: 105 LSQ: 63 IQ: 96, IPC: 2.4906
EPOCH ENDS
EPOCH STARTS
TH0 ROB: 4 LSQ: 0 IQ: 0 IPC: 0.0027
TH1 ROB: 4 LSQ: 1 IQ: 0, IPC: 0.0025
TH2 ROB: 4 LSQ: 4 IQ: 0, IPC: 0.0048
TH3 ROB: 105 LSQ: 63 IQ: 96, IPC: 2.4906
EPOCH ENDS
EPOCH STARTS
TH0 ROB: 4 LSQ: 0 IQ: 0 IPC: 0.0026
TH1 ROB: 4 LSQ: 1 IQ: 0, IPC: 0.0025
TH2 ROB: 4 LSQ: 4 IQ: 0, IPC: 0.0048
TH3 ROB: 105 LSQ: 63 IQ: 96, IPC: 2.4906
EPOCH ENDS
EPOCH STARTS
TH0 ROB: 4 LSQ: 0 IQ: 0 IPC: 0.0026
TH1 ROB: 4 LSQ: 1 IQ: 0, IPC: 0.0025
TH2 ROB: 4 LSQ: 4 IQ: 0, IPC: 0.0048
TH3 ROB: 105 LSQ: 63 IQ: 96, IPC: 2.4906
EPOCH ENDS
EPOCH STARTS
TH0 ROB: 4 LSQ: 0 IQ: 0 IPC: 0.0026
TH1 ROB: 4 LSQ: 1 IQ: 0, IPC: 0.0025
TH2 ROB: 4 LSQ: 4 IQ: 0, IPC: 0.0048
TH3 ROB: 105 LSQ: 63 IQ: 96, IPC: 2.4907
EPOCH ENDS
EPOCH STARTS
TH0 ROB: 4 LSQ: 0 IQ: 0 IPC: 0.0026
TH1 ROB: 4 LSQ: 1 IQ: 0, IPC: 0.0025
TH2 ROB: 4 LSQ: 4 IQ: 0, IPC: 0.0048
TH3 ROB: 105 LSQ: 63 IQ: 96, IPC: 2.4907
EPOCH ENDS
EPOCH STARTS
TH0 ROB: 4 LSQ: 0 IQ: 0 IPC: 0.0026
TH1 ROB: 4 LSQ: 1 IQ: 0, IPC: 0.0025
TH2 ROB: 4 LSQ: 4 IQ: 0, IPC: 0.0048
TH3 ROB: 105 LSQ: 63 IQ: 96, IPC: 2.4907
EPOCH ENDS
EPOCH STARTS
TH0 ROB: 4 LSQ: 0 IQ: 0 IPC: 0.0026
TH1 ROB: 4 LSQ: 1 IQ: 0, IPC: 0.0025
TH2 ROB: 4 LSQ: 4 IQ: 0, IPC: 0.0047
TH3 ROB: 105 LSQ: 63 IQ: 96, IPC: 2.4907
EPOCH ENDS
EPOCH STARTS
TH0 ROB: 4 LSQ: 0 IQ: 0 IPC: 0.0026
TH1 ROB: 4 LSQ: 1 IQ: 0, IPC: 0.0025
TH2 ROB: 4 LSQ: 4 IQ: 0, IPC: 0.0047
TH3 ROB: 105 LSQ: 63 IQ: 96, IPC: 2.4908
EPOCH ENDS
EPOCH STARTS
TH0 ROB: 4 LSQ: 0 IQ: 0 IPC: 0.0026
TH1 ROB: 4 LSQ: 1 IQ: 0, IPC: 0.0025
TH2 ROB: 4 LSQ: 4 IQ: 0, IPC: 0.0047
TH3 ROB: 105 LSQ: 63 IQ: 96, IPC: 2.4908
EPOCH ENDS
EPOCH STARTS
TH0 ROB: 4 LSQ: 0 IQ: 0 IPC: 0.0026
TH1 ROB: 4 LSQ: 1 IQ: 0, IPC: 0.0025
TH2 ROB: 4 LSQ: 4 IQ: 0, IPC: 0.0047
TH3 ROB: 105 LSQ: 63 IQ: 96, IPC: 2.4908
EPOCH ENDS
EPOCH STARTS
TH0 ROB: 4 LSQ: 0 IQ: 0 IPC: 0.0026
TH1 ROB: 4 LSQ: 1 IQ: 0, IPC: 0.0025
TH2 ROB: 4 LSQ: 4 IQ: 0, IPC: 0.0047
TH3 ROB: 105 LSQ: 63 IQ: 96, IPC: 2.4908
EPOCH ENDS
EPOCH STARTS
TH0 ROB: 4 LSQ: 0 IQ: 0 IPC: 0.0026
TH1 ROB: 4 LSQ: 1 IQ: 0, IPC: 0.0025
TH2 ROB: 4 LSQ: 4 IQ: 0, IPC: 0.0047
TH3 ROB: 105 LSQ: 63 IQ: 96, IPC: 2.4909
EPOCH ENDS
EPOCH STARTS
TH0 ROB: 4 LSQ: 0 IQ: 0 IPC: 0.0026
TH1 ROB: 4 LSQ: 1 IQ: 0, IPC: 0.0024
TH2 ROB: 4 LSQ: 4 IQ: 0, IPC: 0.0047
TH3 ROB: 105 LSQ: 63 IQ: 96, IPC: 2.4909
EPOCH ENDS
EPOCH STARTS
TH0 ROB: 4 LSQ: 0 IQ: 0 IPC: 0.0026
TH1 ROB: 4 LSQ: 1 IQ: 0, IPC: 0.0024
TH2 ROB: 4 LSQ: 4 IQ: 0, IPC: 0.0047
TH3 ROB: 105 LSQ: 63 IQ: 96, IPC: 2.4909
EPOCH ENDS
EPOCH STARTS
TH0 ROB: 4 LSQ: 0 IQ: 0 IPC: 0.0026
TH1 ROB: 4 LSQ: 1 IQ: 0, IPC: 0.0024
TH2 ROB: 4 LSQ: 4 IQ: 0, IPC: 0.0046
TH3 ROB: 105 LSQ: 63 IQ: 96, IPC: 2.4909
EPOCH ENDS
EPOCH STARTS
TH0 ROB: 4 LSQ: 0 IQ: 0 IPC: 0.0025
TH1 ROB: 4 LSQ: 1 IQ: 0, IPC: 0.0024
TH2 ROB: 4 LSQ: 4 IQ: 0, IPC: 0.0046
TH3 ROB: 105 LSQ: 63 IQ: 96, IPC: 2.4910
EPOCH ENDS
EPOCH STARTS
TH0 ROB: 4 LSQ: 0 IQ: 0 IPC: 0.0025
TH1 ROB: 4 LSQ: 1 IQ: 0, IPC: 0.0024
TH2 ROB: 4 LSQ: 4 IQ: 0, IPC: 0.0046
TH3 ROB: 105 LSQ: 63 IQ: 96, IPC: 2.4910
EPOCH ENDS
EPOCH STARTS
TH0 ROB: 4 LSQ: 0 IQ: 0 IPC: 0.0025
TH1 ROB: 4 LSQ: 1 IQ: 0, IPC: 0.0024
TH2 ROB: 4 LSQ: 4 IQ: 0, IPC: 0.0046
TH3 ROB: 105 LSQ: 63 IQ: 96, IPC: 2.4910
EPOCH ENDS
EPOCH STARTS
TH0 ROB: 4 LSQ: 0 IQ: 0 IPC: 0.0025
TH1 ROB: 4 LSQ: 1 IQ: 0, IPC: 0.0024
TH2 ROB: 4 LSQ: 4 IQ: 0, IPC: 0.0046
TH3 ROB: 105 LSQ: 63 IQ: 96, IPC: 2.4910
EPOCH ENDS
EPOCH STARTS
TH0 ROB: 4 LSQ: 0 IQ: 0 IPC: 0.0025
TH1 ROB: 4 LSQ: 1 IQ: 0, IPC: 0.0024
TH2 ROB: 4 LSQ: 4 IQ: 0, IPC: 0.0046
TH3 ROB: 105 LSQ: 63 IQ: 96, IPC: 2.4911
EPOCH ENDS
EPOCH STARTS
TH0 ROB: 4 LSQ: 0 IQ: 0 IPC: 0.0025
TH1 ROB: 4 LSQ: 1 IQ: 0, IPC: 0.0024
TH2 ROB: 4 LSQ: 4 IQ: 0, IPC: 0.0046
TH3 ROB: 105 LSQ: 63 IQ: 96, IPC: 2.4911
EPOCH ENDS
EPOCH STARTS
TH0 ROB: 4 LSQ: 0 IQ: 0 IPC: 0.0025
TH1 ROB: 4 LSQ: 1 IQ: 0, IPC: 0.0024
TH2 ROB: 4 LSQ: 4 IQ: 0, IPC: 0.0046
TH3 ROB: 105 LSQ: 63 IQ: 96, IPC: 2.4911
EPOCH ENDS
EPOCH STARTS
TH0 ROB: 4 LSQ: 0 IQ: 0 IPC: 0.0025
TH1 ROB: 4 LSQ: 1 IQ: 0, IPC: 0.0024
TH2 ROB: 4 LSQ: 4 IQ: 0, IPC: 0.0046
TH3 ROB: 105 LSQ: 63 IQ: 96, IPC: 2.4911
EPOCH ENDS
EPOCH STARTS
TH0 ROB: 4 LSQ: 0 IQ: 0 IPC: 0.0025
TH1 ROB: 4 LSQ: 1 IQ: 0, IPC: 0.0024
TH2 ROB: 4 LSQ: 4 IQ: 0, IPC: 0.0045
TH3 ROB: 105 LSQ: 63 IQ: 96, IPC: 2.4911
EPOCH ENDS
EPOCH STARTS
TH0 ROB: 4 LSQ: 0 IQ: 0 IPC: 0.0025
TH1 ROB: 4 LSQ: 1 IQ: 0, IPC: 0.0024
TH2 ROB: 4 LSQ: 4 IQ: 0, IPC: 0.0045
TH3 ROB: 105 LSQ: 63 IQ: 96, IPC: 2.4912
EPOCH ENDS
EPOCH STARTS
TH0 ROB: 4 LSQ: 0 IQ: 0 IPC: 0.0025
TH1 ROB: 4 LSQ: 1 IQ: 0, IPC: 0.0024
TH2 ROB: 4 LSQ: 4 IQ: 0, IPC: 0.0045
TH3 ROB: 105 LSQ: 63 IQ: 96, IPC: 2.4912
EPOCH ENDS
EPOCH STARTS
TH0 ROB: 4 LSQ: 0 IQ: 0 IPC: 0.0025
TH1 ROB: 4 LSQ: 1 IQ: 0, IPC: 0.0024
TH2 ROB: 4 LSQ: 4 IQ: 0, IPC: 0.0045
TH3 ROB: 105 LSQ: 63 IQ: 96, IPC: 2.4912
EPOCH ENDS
EPOCH STARTS
TH0 ROB: 4 LSQ: 0 IQ: 0 IPC: 0.0025
TH1 ROB: 4 LSQ: 1 IQ: 0, IPC: 0.0024
TH2 ROB: 4 LSQ: 4 IQ: 0, IPC: 0.0045
TH3 ROB: 105 LSQ: 63 IQ: 96, IPC: 2.4912
EPOCH ENDS
EPOCH STARTS
TH0 ROB: 4 LSQ: 0 IQ: 0 IPC: 0.0025
[...]
Thread_3_cpred_bimod.retstack_pops            0 # total number of address popped off of ret-addr stack
Thread_3_cpred_bimod.used_ras.PP            0 # total number of RAS predictions used
Thread_3_cpred_bimod.ras_hits.PP            0 # total number of RAS hits
Thread_3_cpred_bimod.ras_rate.PP <error: divide by zero> # RAS prediction rate (i.e., RAS hits/used RAS)
il1.accesses              625019159 # total number of accesses
il1.hits                  625019131 # total number of hits
il1.misses                       28 # total number of misses
il1.replacements                 28 # total number of replacements
il1.writebacks                    0 # total number of writebacks
il1.invalidations                 0 # total number of invalidations
il1.miss_rate                0.0000 # miss rate (i.e., misses/ref)
il1.repl_rate                0.0000 # replacement rate (i.e., repls/ref)
il1.wb_rate                  0.0000 # writeback rate (i.e., wrbks/ref)
il1.inv_rate                 0.0000 # invalidation rate (i.e., invs/ref)
dl1.accesses              250012164 # total number of accesses
dl1.hits                  250007708 # total number of hits
dl1.misses                     4456 # total number of misses
dl1.replacements               4456 # total number of replacements
dl1.writebacks                 4322 # total number of writebacks
dl1.invalidations                 0 # total number of invalidations
dl1.miss_rate                0.0000 # miss rate (i.e., misses/ref)
dl1.repl_rate                0.0000 # replacement rate (i.e., repls/ref)
dl1.wb_rate                  0.0000 # writeback rate (i.e., wrbks/ref)
dl1.inv_rate                 0.0000 # invalidation rate (i.e., invs/ref)
ul2.accesses                   8806 # total number of accesses
ul2.hits                       5239 # total number of hits
ul2.misses                     3567 # total number of misses
ul2.replacements               3567 # total number of replacements
ul2.writebacks                 2636 # total number of writebacks
ul2.invalidations                 0 # total number of invalidations
ul2.miss_rate                0.4051 # miss rate (i.e., misses/ref)
ul2.repl_rate                0.4051 # replacement rate (i.e., repls/ref)
ul2.wb_rate                  0.2993 # writeback rate (i.e., wrbks/ref)
ul2.inv_rate                 0.0000 # invalidation rate (i.e., invs/ref)
itlb.accesses             625019159 # total number of accesses
itlb.hits                 625019159 # total number of hits
itlb.misses                       0 # total number of misses
itlb.replacements                 0 # total number of replacements
itlb.writebacks                   0 # total number of writebacks
itlb.invalidations                0 # total number of invalidations
itlb.miss_rate               0.0000 # miss rate (i.e., misses/ref)
itlb.repl_rate               0.0000 # replacement rate (i.e., repls/ref)
itlb.wb_rate                 0.0000 # writeback rate (i.e., wrbks/ref)
itlb.inv_rate                0.0000 # invalidation rate (i.e., invs/ref)
dtlb.accesses             374992223 # total number of accesses
dtlb.hits                 374990814 # total number of hits
dtlb.misses                    1409 # total number of misses
dtlb.replacements              1409 # total number of replacements
dtlb.writebacks                   0 # total number of writebacks
dtlb.invalidations                0 # total number of invalidations
dtlb.miss_rate               0.0000 # miss rate (i.e., misses/ref)
dtlb.repl_rate               0.0000 # replacement rate (i.e., repls/ref)
dtlb.wb_rate                 0.0000 # writeback rate (i.e., wrbks/ref)
dtlb.inv_rate                0.0000 # invalidation rate (i.e., invs/ref)
sim_invalid_addrs                 0 # total non-speculative bogus addresses seen (debug var)
ld_text_base           0x0120000000 # program text (code) segment base
mem->ld_text_size            294912 # program text (code) size in bytes
mem->ld_data_base      0x0140000000 # program initialized data segment base
mem->ld_data_size             93888 # program init'ed `.data' and uninit'ed `.bss' size in bytes
mem->ld_stack_base     0x011ff9b000 # program stack segment base (highest address in stack)
mem->ld_stack_size            16384 # program initial stack size
mem->ld_prog_entry     0x0120000300 # program entry point (initial PC)
mem->ld_environ_base   0x011ff97000 # program environment base address address
mem->ld_target_big_endian            0 # target executable endian-ness, non-zero if big endian
mem_0.page_count             108052 # total number of pages allocated
mem_0.page_mem              864416k # total size of memory pages allocated
mem_0.ptab_misses            112164 # total first level page table misses
mem_0.ptab_accesses        74840012 # total page table accesses
mem_0.ptab_miss_rate         0.0015 # first level page table miss rate
ld_text_base           0x0120000000 # program text (code) segment base
mem->ld_text_size            475136 # program text (code) size in bytes
mem->ld_data_base      0x0140000000 # program initialized data segment base
mem->ld_data_size            123648 # program init'ed `.data' and uninit'ed `.bss' size in bytes
mem->ld_stack_base     0x011ff9b000 # program stack segment base (highest address in stack)
mem->ld_stack_size            16384 # program initial stack size
mem->ld_prog_entry     0x0120000300 # program entry point (initial PC)
mem->ld_environ_base   0x011ff97000 # program environment base address address
mem->ld_target_big_endian            0 # target executable endian-ness, non-zero if big endian
mem_0.page_count                599 # total number of pages allocated
mem_0.page_mem              864416k # total size of memory pages allocated
mem_0.ptab_misses             11931 # total first level page table misses
mem_0.ptab_accesses        80468428 # total page table accesses
mem_0.ptab_miss_rate         0.0015 # first level page table miss rate
ld_text_base           0x0120000000 # program text (code) segment base
mem->ld_text_size            507904 # program text (code) size in bytes
mem->ld_data_base      0x0140000000 # program initialized data segment base
mem->ld_data_size        1172354816 # program init'ed `.data' and uninit'ed `.bss' size in bytes
mem->ld_stack_base     0x011ff9b000 # program stack segment base (highest address in stack)
mem->ld_stack_size            16384 # program initial stack size
mem->ld_prog_entry     0x0120000300 # program entry point (initial PC)
mem->ld_environ_base   0x011ff97000 # program environment base address address
mem->ld_target_big_endian            0 # target executable endian-ness, non-zero if big endian
mem_0.page_count               2651 # total number of pages allocated
mem_0.page_mem              864416k # total size of memory pages allocated
mem_0.ptab_misses              2695 # total first level page table misses
mem_0.ptab_accesses       109920830 # total page table accesses
mem_0.ptab_miss_rate         0.0015 # first level page table miss rate
ld_text_base           0x0120000000 # program text (code) segment base
mem->ld_text_size          13901824 # program text (code) size in bytes
mem->ld_data_base      0x0140000000 # program initialized data segment base
mem->ld_data_size            323760 # program init'ed `.data' and uninit'ed `.bss' size in bytes
mem->ld_stack_base     0x011ff9b000 # program stack segment base (highest address in stack)
mem->ld_stack_size            16384 # program initial stack size
mem->ld_prog_entry     0x01205d46b0 # program entry point (initial PC)
mem->ld_environ_base   0x011ff97000 # program environment base address address
mem->ld_target_big_endian            0 # target executable endian-ness, non-zero if big endian
mem_0.page_count               1739 # total number of pages allocated
mem_0.page_mem              864416k # total size of memory pages allocated
mem_0.ptab_misses              1796 # total first level page table misses
mem_0.ptab_accesses      7393286232 # total page table accesses
mem_0.ptab_miss_rate         0.0015 # first level page table miss rate
rename_power           170831330.8521 # total power usage of rename unit
bpred_power            1130781596.2667 # total power usage of bpred unit
window_power           3569047442.0555 # total power usage of instruction window
lsq_power              1992927240.4008 # total power usage of load/store queue
regfile_power          893118024.3201 # total power usage of arch. regfile
icache_power           1058450497.7872 # total power usage of icache
dcache_power           2311943843.8834 # total power usage of dcache
dcache2_power          1300033981.9295 # total power usage of dcache2
alu_power              4735293863.5147 # total power usage of alu
falu_power             3570261239.8660 # total power usage of falu
resultbus_power        2253231538.7770 # total power usage of resultbus
clock_power            7621587330.2502 # total power usage of clock
avg_rename_power             0.6833 # avg power usage of rename unit
avg_bpred_power              4.5231 # avg power usage of bpred unit
avg_window_power            14.2762 # avg power usage of instruction window
avg_lsq_power                7.9717 # avg power usage of lsq
avg_regfile_power            3.5725 # avg power usage of arch. regfile
avg_icache_power             4.2338 # avg power usage of icache
avg_dcache_power             9.2478 # avg power usage of dcache
avg_dcache2_power            5.2001 # avg power usage of dcache2
avg_alu_power               18.9412 # avg power usage of alu
avg_falu_power              14.2810 # avg power usage of falu
avg_resultbus_power          9.0129 # avg power usage of resultbus
avg_clock_power             30.4863 # avg power usage of clock
fetch_stage_power      2189232094.0540 # total power usage of fetch stage
dispatch_stage_power   170831330.8521 # total power usage of dispatch stage
issue_stage_power      16162477910.5610 # total power usage of issue stage
avg_fetch_power              8.7569 # average power of fetch unit per cycle
avg_dispatch_power           0.6833 # average power of dispatch unit per cycle
avg_issue_power             64.6499 # average power of issue unit per cycle
total_power            27037246690.0374 # total power per cycle
avg_total_power_cycle      108.1490 # average total power per cycle
avg_total_power_cycle_nofp_nod2      88.6678 # average total power per cycle
avg_total_power_insn        43.2585 # average total power per insn
avg_total_power_insn_nofp_nod2      35.4662 # average total power per insn
rename_power_cc1       170830008.6176 # total power usage of rename unit_cc1
bpred_power_cc1        565335767.9190 # total power usage of bpred unit_cc1
window_power_cc1       4081165289.8986 # total power usage of instruction window_cc1
lsq_power_cc1          1667153774.1840 # total power usage of lsq_cc1
regfile_power_cc1      868924861.4718 # total power usage of arch. regfile_cc1
icache_power_cc1       1058430675.1264 # total power usage of icache_cc1
dcache_power_cc1       1156117452.7299 # total power usage of dcache_cc1
dcache2_power_cc1        23309.6092 # total power usage of dcache2_cc1
alu_power_cc1          1165074551.3666 # total power usage of alu_cc1
resultbus_power_cc1    2253174670.6753 # total power usage of resultbus_cc1
clock_power_cc1        5463041627.4778 # total power usage of clock_cc1
avg_rename_power_cc1         0.6833 # avg power usage of rename unit_cc1
avg_bpred_power_cc1          2.2613 # avg power usage of bpred unit_cc1
avg_window_power_cc1        16.3247 # avg power usage of instruction window_cc1
avg_lsq_power_cc1            6.6686 # avg power usage of lsq_cc1
avg_regfile_power_cc1        3.4757 # avg power usage of arch. regfile_cc1
avg_icache_power_cc1         4.2337 # avg power usage of icache_cc1
avg_dcache_power_cc1         4.6245 # avg power usage of dcache_cc1
avg_dcache2_power_cc1        0.0001 # avg power usage of dcache2_cc1
avg_alu_power_cc1            4.6603 # avg power usage of alu_cc1
avg_resultbus_power_cc1       9.0127 # avg power usage of resultbus_cc1
avg_clock_power_cc1         21.8522 # avg power usage of clock_cc1
fetch_stage_power_cc1  1623766443.0454 # total power usage of fetch stage_cc1
dispatch_stage_power_cc1 170830008.6176 # total power usage of dispatch stage_cc1
issue_stage_power_cc1  10322709048.4636 # total power usage of issue stage_cc1
avg_fetch_power_cc1          6.4951 # average power of fetch unit per cycle_cc1
avg_dispatch_power_cc1       0.6833 # average power of dispatch unit per cycle_cc1
avg_issue_power_cc1         41.2908 # average power of issue unit per cycle_cc1
total_power_cycle_cc1  18449271989.0763 # total power per cycle_cc1
avg_total_power_cycle_cc1      73.7971 # average total power per cycle_cc1
avg_total_power_insn_cc1      29.5181 # average total power per insn_cc1
rename_power_cc2       106772289.6281 # total power usage of rename unit_cc2
bpred_power_cc2        282670027.9214 # total power usage of bpred unit_cc2
window_power_cc2       4006930016.0974 # total power usage of instruction window_cc2
lsq_power_cc2          833593507.5826 # total power usage of lsq_cc2
regfile_power_cc2      142813228.8164 # total power usage of arch. regfile_cc2
icache_power_cc2       1058430675.1264 # total power usage of icache_cc2
dcache_power_cc2       1156028170.0831 # total power usage of dcache_cc2
dcache2_power_cc2        22896.1984 # total power usage of dcache2_cc2
alu_power_cc2          728160863.8253 # total power usage of alu_cc2
resultbus_power_cc2    1689888724.9669 # total power usage of resultbus_cc2
clock_power_cc2        4209004957.5038 # total power usage of clock_cc2
avg_rename_power_cc2         0.4271 # avg power usage of rename unit_cc2
avg_bpred_power_cc2          1.1307 # avg power usage of bpred unit_cc2
avg_window_power_cc2        16.0277 # avg power usage of instruction window_cc2
avg_lsq_power_cc2            3.3344 # avg power usage of instruction lsq_cc2
avg_regfile_power_cc2        0.5713 # avg power usage of arch. regfile_cc2
avg_icache_power_cc2         4.2337 # avg power usage of icache_cc2
avg_dcache_power_cc2         4.6241 # avg power usage of dcache_cc2
avg_dcache2_power_cc2        0.0001 # avg power usage of dcache2_cc2
avg_alu_power_cc2            2.9126 # avg power usage of alu_cc2
avg_resultbus_power_cc2       6.7596 # avg power usage of resultbus_cc2
avg_clock_power_cc2         16.8360 # avg power usage of clock_cc2
fetch_stage_power_cc2  1341100703.0478 # total power usage of fetch stage_cc2
dispatch_stage_power_cc2 106772289.6281 # total power usage of dispatch stage_cc2
issue_stage_power_cc2  8414624178.7538 # total power usage of issue stage_cc2
avg_fetch_power_cc2          5.3644 # average power of fetch unit per cycle_cc2
avg_dispatch_power_cc2       0.4271 # average power of dispatch unit per cycle_cc2
avg_issue_power_cc2         33.6585 # average power of issue unit per cycle_cc2
total_power_cycle_cc2  14214315357.7499 # total power per cycle_cc2
avg_total_power_cycle_cc2      56.8573 # average total power per cycle_cc2
avg_total_power_insn_cc2      22.7423 # average total power per insn_cc2
rename_power_cc3       106772421.8515 # total power usage of rename unit_cc3
bpred_power_cc3        339214630.2374 # total power usage of bpred unit_cc3
window_power_cc3       4006930155.1430 # total power usage of instruction window_cc3
lsq_power_cc3          866170330.0675 # total power usage of lsq_cc3
regfile_power_cc3      142814365.5770 # total power usage of arch. regfile_cc3
icache_power_cc3       1058432657.3925 # total power usage of icache_cc3
dcache_power_cc3       1271612604.4987 # total power usage of dcache_cc3
dcache2_power_cc3      130023976.8608 # total power usage of dcache2_cc3
alu_power_cc3          1085182800.2570 # total power usage of alu_cc3
resultbus_power_cc3    1689889053.9387 # total power usage of resultbus_cc3
clock_power_cc3        4445341386.6474 # total power usage of clock_cc3
avg_rename_power_cc3         0.4271 # avg power usage of rename unit_cc3
avg_bpred_power_cc3          1.3569 # avg power usage of bpred unit_cc3
avg_window_power_cc3        16.0277 # avg power usage of instruction window_cc3
avg_lsq_power_cc3            3.4647 # avg power usage of instruction lsq_cc3
avg_regfile_power_cc3        0.5713 # avg power usage of arch. regfile_cc3
avg_icache_power_cc3         4.2337 # avg power usage of icache_cc3
avg_dcache_power_cc3         5.0865 # avg power usage of dcache_cc3
avg_dcache2_power_cc3        0.5201 # avg power usage of dcache2_cc3
avg_alu_power_cc3            4.3407 # avg power usage of alu_cc3
avg_resultbus_power_cc3       6.7596 # avg power usage of resultbus_cc3
avg_clock_power_cc3         17.7814 # avg power usage of clock_cc3
fetch_stage_power_cc3  1397647287.6299 # total power usage of fetch stage_cc3
dispatch_stage_power_cc3 106772421.8515 # total power usage of dispatch stage_cc3
issue_stage_power_cc3  9049808920.7657 # total power usage of issue stage_cc3
avg_fetch_power_cc3          5.5906 # average power of fetch unit per cycle_cc3
avg_dispatch_power_cc3       0.4271 # average power of dispatch unit per cycle_cc3
avg_issue_power_cc3         36.1992 # average power of issue unit per cycle_cc3
total_power_cycle_cc3  15142384382.4715 # total power per cycle_cc3
avg_total_power_cycle_cc3      60.5695 # average total power per cycle_cc3
avg_total_power_insn_cc3      24.2272 # average total power per insn_cc3
total_rename_access       625015848 # total number accesses of rename unit
total_bpred_access        124988781 # total number accesses of bpred unit
total_window_access      2749989296 # total number accesses of instruction window
total_lsq_access          374992480 # total number accesses of load/store queue
total_regfile_access      500016677 # total number accesses of arch. regfile
total_icache_access       625019746 # total number accesses of icache
total_dcache_access       250012164 # total number accesses of dcache
total_dcache2_access           8806 # total number accesses of dcache2
total_alu_access          625007080 # total number accesses of alu
total_resultbus_access    750003750 # total number accesses of resultbus
avg_rename_access            2.5001 # avg number accesses of rename unit
avg_bpred_access             0.5000 # avg number accesses of bpred unit
avg_window_access           11.0000 # avg number accesses of instruction window
avg_lsq_access               1.5000 # avg number accesses of lsq
avg_regfile_access           2.0001 # avg number accesses of arch. regfile
avg_icache_access            2.5001 # avg number accesses of icache
avg_dcache_access            1.0000 # avg number accesses of dcache
avg_dcache2_access           0.0000 # avg number accesses of dcache2
avg_alu_access               2.5000 # avg number accesses of alu
avg_resultbus_access         3.0000 # avg number accesses of resultbus
max_rename_access                 4 # max number accesses of rename unit
max_bpred_access                  4 # max number accesses of bpred unit
max_window_access                28 # max number accesses of instruction window
max_lsq_access                    4 # max number accesses of load/store queue
max_regfile_access               12 # max number accesses of arch. regfile
max_icache_access                 4 # max number accesses of icache
max_dcache_access                 4 # max number accesses of dcache
max_dcache2_access                4 # max number accesses of dcache2
max_alu_access                    4 # max number accesses of alu
max_resultbus_access             17 # max number accesses of resultbus
max_cycle_power_cc1        104.3472 # maximum cycle power usage of cc1
max_cycle_power_cc2         93.9369 # maximum cycle power usage of cc2
max_cycle_power_cc3         98.4752 # maximum cycle power usage of cc3


******* SMT STATS *******
THROUGHPUT IPC: 2.5000

TH0 IPC: 0.0001

TH1 IPC: 0.0001

TH2 IPC: 0.0002

TH3 IPC: 2.4997

