sim-outorder: SimpleScalar/Alpha Tool Set version 3.0 of August, 2003.
Copyright (c) 1994-2003 by Todd M. Austin, Ph.D. and SimpleScalar, LLC.
All Rights Reserved. This version of SimpleScalar is licensed for academic
non-commercial use.  No portion of this work may be used by any commercial
entity, or for any commercial purpose, without the prior written permission
of SimpleScalar, LLC (info@simplescalar.com).

Usage: ../m-sim_v2.0/sim-outorder {-options} executable {arguments}

sim-outorder: This simulator implements a very detailed out-of-order issue
superscalar processor with a two-level memory system and speculative
execution support.  This simulator is a performance simulator, tracking the
latency of all pipeline operations.

#
# -option        <args>           #    <default> # description           
#
-config          <string>         #       <null> # load configuration from a file
-dumpconfig      <string>         #       <null> # dump configuration to a file
-h               <true|false>     #        false # print help message    
-v               <true|false>     #        false # verbose operation     
-d               <true|false>     #        false # enable debug message  
-i               <true|false>     #        false # start in Dlite debugger
-seed            <int>            #            1 # random number generator seed (0 for timer seed)
-q               <true|false>     #        false # initialize and terminate immediately
-redir:sim       <string>         #       <null> # redirect simulator output to file (non-interactive only)
-redir:prog      <string>         #       <null> # redirect simulated program output to file
-nice            <int>            #            0 # simulator scheduling priority
-max:inst        <uint>           #    250000000 # maximum number of inst's to execute
-fastfwd         <int>            #     10000000 # number of insts skipped before timing starts
-ptrace          <string list...> #       <null> # generate pipetrace, i.e., <fname|stdout|stderr> <range>
-fetch:speed     <int>            #            1 # speed of front-end of machine relative to execution core
-bpred           <string>         #        bimod # branch predictor type {nottaken|taken|perfect|bimod|2lev|comb}
-bpred:bimod     <int>            # 2048 # bimodal predictor config (<table size>)
-bpred:2lev      <int list...>    # 1 1024 8 0 # 2-level predictor config (<l1size> <l2size> <hist_size> <xor>)
-bpred:comb      <int>            # 1024 # combining predictor config (<meta_table_size>)
-bpred:ras       <int>            #            8 # return address stack size (0 for no return stack)
-bpred:btb       <int list...>    # 512 4 # BTB config (<num_sets> <associativity>)
-bpred:spec_update <string>         #       <null> # speculative predictors update in {ID|WB} (default non-spec)
-cpred           <string>         #        bimod # cache load-latency predictor type {nottaken|taken|perfect|bimod|2lev|comb}
-cpred:bimod     <int>            # 2048 # cache load-latency bimodal predictor config (<table size>)
-cpred:2lev      <int list...>    # 1 1024 8 0 # cache load-latency 2-level predictor config (<l1size> <l2size> <hist_size> <xor>)
-cpred:comb      <int>            # 1024 # cache load-latency combining predictor config (<meta_table_size>)
-cpred:ras       <int>            #            0 # return address stack size (0 for no return stack)
-cpred:btb       <int list...>    # 512 4 # cache load-latency BTB config (<num_sets> <associativity>)
-decode:width    <int>            #            4 # instruction decode B/W (insts/cycle)
-issue:width     <int>            #            4 # instruction issue B/W (insts/cycle)
-issue:inorder   <true|false>     #        false # run pipeline with in-order issue
-issue:wrongpath <true|false>     #         true # issue instructions down wrong execution paths
-commit:width    <int>            #            4 # instruction commit B/W (insts/cycle)
-rob:size        <int>            #          224 # reorder buffer (ROB) size
-fetch:policy |icount|round_robin| <string>         #       icount # fetch policy          
-recovery:model  <string>         #       squash # Alpha squash recovery or perfect predition: |squash|perfect|
-iq:size         <int>            #           96 # issue queue (IQ) size 
-iq:issue_exec_delay <int>            #            1 # minimum cycles between issue and execution
-fetch_rename_delay <int>            #            4 # number of cycles between fetch and rename stages
-rename_dispatch_delay <int>            #            1 # number cycles between rename and dispatch stages
-rf:size         <int>            #          256 # register file (RF) size for each the INT and FP physical register file)
-lsq:size        <int>            #          128 # load/store queue (LSQ) size
-cache:dl1       <string>         # dl1:256:32:4:l # l1 data cache config, i.e., {<config>|none}
-cache:dl1lat    <int>            #            1 # l1 data cache hit latency (in cycles)
-cache:dl2       <string>         # ul2:1024:64:8:l # l2 data cache config, i.e., {<config>|none}
-cache:dl2lat    <int>            #            6 # l2 data cache hit latency (in cycles)
-cache:il1       <string>         # il1:512:32:2:l # l1 inst cache config, i.e., {<config>|dl1|dl2|none}
-cache:il1lat    <int>            #            1 # l1 instruction cache hit latency (in cycles)
-cache:il2       <string>         #          dl2 # l2 instruction cache config, i.e., {<config>|dl2|none}
-cache:il2lat    <int>            #            6 # l2 instruction cache hit latency (in cycles)
-cache:flush     <true|false>     #        false # flush caches on system calls
-cache:icompress <true|false>     #        false # convert 64-bit inst addresses to 32-bit inst equivalents
-mem:lat         <int list...>    # 100 2 # memory access latency (<first_chunk> <inter_chunk>)
-mem:width       <int>            #            8 # memory access bus width (in bytes)
-tlb:itlb        <string>         # itlb:16:4096:4:l # instruction TLB config, i.e., {<config>|none}
-tlb:dtlb        <string>         # dtlb:32:4096:4:l # data TLB config, i.e., {<config>|none}
-tlb:lat         <int>            #           30 # inst/data TLB miss latency (in cycles)
-res:ialu        <int>            #            4 # total number of integer ALU's available
-res:imult       <int>            #            1 # total number of integer multiplier/dividers available
-res:memport     <int>            #            2 # total number of memory system ports available (to CPU)
-res:fpalu       <int>            #            4 # total number of floating point ALU's available
-res:fpmult      <int>            #            1 # total number of floating point multiplier/dividers available
-pcstat          <string list...> #       <null> # profile stat(s) against text addr's (mult uses ok)
-power:print_stats <true|false>     #         true # print power statistics collected by wattch?

  Pipetrace range arguments are formatted as follows:

    {{@|#}<start>}:{{@|#|+}<end>}

  Both ends of the range are optional, if neither are specified, the entire
  execution is traced.  Ranges that start with a `@' designate an address
  range to be traced, those that start with an `#' designate a cycle count
  range.  All other range values represent an instruction count range.  The
  second argument, if specified with a `+', indicates a value relative
  to the first argument, e.g., 1000:+100 == 1000:1100.  Program symbols may
  be used in all contexts.

    Examples:   -ptrace FOO.trc #0:#1000
                -ptrace BAR.trc @2000:
                -ptrace BLAH.trc :1500
                -ptrace UXXE.trc :
                -ptrace FOOBAR.trc @main:+278

  Branch predictor configuration examples for 2-level predictor:
    Configurations:   N, M, W, X
      N   # entries in first level (# of shift register(s))
      W   width of shift register(s)
      M   # entries in 2nd level (# of counters, or other FSM)
      X   (yes-1/no-0) xor history and address for 2nd level index
    Sample predictors:
      GAg     : 1, W, 2^W, 0
      GAp     : 1, W, M (M > 2^W), 0
      PAg     : N, W, 2^W, 0
      PAp     : N, W, M (M == 2^(N+W)), 0
      gshare  : 1, W, 2^W, 1
  Predictor `comb' combines a bimodal and a 2-level predictor.

  The cache config parameter <config> has the following format:

    <name>:<nsets>:<bsize>:<assoc>:<repl>

    <name>   - name of the cache being defined
    <nsets>  - number of sets in the cache
    <bsize>  - block size of the cache
    <assoc>  - associativity of the cache
    <repl>   - block replacement strategy, 'l'-LRU, 'f'-FIFO, 'r'-random

    Examples:   -cache:dl1 dl1:4096:32:1:l
                -dtlb dtlb:128:4096:32:r

  Cache levels can be unified by pointing a level of the instruction cache
  hierarchy at the data cache hiearchy using the "dl1" and "dl2" cache
  configuration arguments.  Most sensible combinations are supported, e.g.,

    A unified l2 cache (il2 is pointed at dl2):
      -cache:il1 il1:128:64:1:l -cache:il2 dl2
      -cache:dl1 dl1:256:32:1:l -cache:dl2 ul2:1024:64:2:l

    Or, a fully unified cache hierarchy (il1 pointed at dl1):
      -cache:il1 dl1
      -cache:dl1 ul1:256:32:1:l -cache:dl2 ul2:1024:64:2:l


