sim-outorder: SimpleScalar/Alpha Tool Set version 3.0 of August, 2003.
Copyright (c) 1994-2003 by Todd M. Austin, Ph.D. and SimpleScalar, LLC.
All Rights Reserved. This version of SimpleScalar is licensed for academic
non-commercial use.  No portion of this work may be used by any commercial
entity, or for any commercial purpose, without the prior written permission
of SimpleScalar, LLC (info@simplescalar.com).


Processor Parameters:
Issue Width: 4
Window Size: 224
Number of Virtual Registers: 32
Number of Physical Registers: 256
Datapath Width: 64
Total Power Consumption: 110.149
Branch Predictor Power Consumption: 4.52313  (4.18%)
 branch target buffer power (W): 4.16837
 local predict power (W): 0.0879711
 global predict power (W): 0.0996078
 chooser power (W): 0.0702439
 RAS power (W): 0.0969383
Rename Logic Power Consumption: 0.683325  (0.632%)
 Instruction Decode Power (W): 0.0159915
 RAT decode_power (W): 0.113514
 RAT wordline_power (W): 0.0493708
 RAT bitline_power (W): 0.493541
 DCL Comparators (W): 0.0109075
Instruction Window Power Consumption: 14.2762  (13.2%)
 tagdrive (W): 0.827064
 tagmatch (W): 0.360565
 Selection Logic (W): 0.0885831
 decode_power (W): 1.16922
 wordline_power (W): 0.0844643
 bitline_power (W): 11.7463
Load/Store Queue Power Consumption: 7.97171  (7.37%)
 tagdrive (W): 3.75392
 tagmatch (W): 1.61238
 decode_power (W): 0.181222
 wordline_power (W): 0.0150119
 bitline_power (W): 2.40917
Arch. Register File Power Consumption: 3.57247  (3.3%)
 decode_power (W): 0.113514
 wordline_power (W): 0.0844643
 bitline_power (W): 3.37449
Result Bus Power Consumption: 9.01293  (8.33%)
Total Clock Power: 30.4863  (28.2%)
Int ALU Power: 4.66013  (4.31%)
FP ALU Power: 14.281  (13.2%)
Instruction Cache Power Consumption: 3.97049  (3.67%)
 decode_power (W): 1.67268
 wordline_power (W): 0.028656
 bitline_power (W): 1.5122
 senseamp_power (W): 0.096
 tagarray_power (W): 0.660946
Itlb_power (W): 0.263317 (0.243%)
Data Cache Power Consumption: 8.34726  (7.72%)
 decode_power (W): 1.44978
 wordline_power (W): 0.196735
 bitline_power (W): 4.58765
 senseamp_power (W): 0.768
 tagarray_power (W): 1.34509
Dtlb_power (W): 0.900515 (0.833%)
Level 2 Cache Power Consumption: 5.20014 (4.81%)
 decode_power (W): 0.41817
 wordline_power (W): 0.0430878
 bitline_power (W): 3.0244
 senseamp_power (W): 0.192
 tagarray_power (W): 1.52247
sim-main: initalizing context 0:hmmerNS.1.arg
args: 0:./hmmer.base.alpha 1:./nph3.hmm 2:./swiss41 
sim: loading binary...
sim: loading ./hmmer.base.alpha
sim-main: initalizing context 1:libquantumNS.1.arg
args: 0:./libquantum.base.alpha 1:1397 2:8 
sim: loading binary...
sim: loading ./libquantum.base.alpha
warning: section `.comment' ignored...
sim-main: initalizing context 2:mcfNS.1.arg
args: 0:./mcf.base.alpha 1:./mcf.in 
sim: loading binary...
sim: loading ./mcf.base.alpha
sim-main: initalizing context 3:namdNS.1.arg
args: 0:./namd.base.alpha 1:--input 2:./namd.input 3:--iterations 4:38 5:--output 6:./namd.out 
sim: loading binary...
sim: loading ./namd.base.alpha
warning: section `.comment' ignored...
sim: command line: ../m-sim_v2.0/sim-outorder hmmerNS.1.arg libquantumNS.1.arg mcfNS.1.arg namdNS.1.arg 

sim: simulation started @ Tue Aug  9 00:06:46 2022, options follow:

sim-outorder: This simulator implements a very detailed out-of-order issue
superscalar processor with a two-level memory system and speculative
execution support.  This simulator is a performance simulator, tracking the
latency of all pipeline operations.

# -config                     # load configuration from a file
# -dumpconfig                 # dump configuration to a file
# -h                    false # print help message    
# -v                    false # verbose operation     
# -d                    false # enable debug message  
# -i                    false # start in Dlite debugger
-seed                       1 # random number generator seed (0 for timer seed)
# -q                    false # initialize and terminate immediately
# -redir:sim           <null> # redirect simulator output to file (non-interactive only)
# -redir:prog          <null> # redirect simulated program output to file
-nice                       0 # simulator scheduling priority
-max:inst           250000000 # maximum number of inst's to execute
-fastfwd             10000000 # number of insts skipped before timing starts
# -ptrace              <null> # generate pipetrace, i.e., <fname|stdout|stderr> <range>
-fetch:speed                1 # speed of front-end of machine relative to execution core
-bpred                  bimod # branch predictor type {nottaken|taken|perfect|bimod|2lev|comb}
-bpred:bimod     2048 # bimodal predictor config (<table size>)
-bpred:2lev      1 1024 8 0 # 2-level predictor config (<l1size> <l2size> <hist_size> <xor>)
-bpred:comb      1024 # combining predictor config (<meta_table_size>)
-bpred:ras                  8 # return address stack size (0 for no return stack)
-bpred:btb       512 4 # BTB config (<num_sets> <associativity>)
# -bpred:spec_update       <null> # speculative predictors update in {ID|WB} (default non-spec)
-cpred                  bimod # cache load-latency predictor type {nottaken|taken|perfect|bimod|2lev|comb}
-cpred:bimod     2048 # cache load-latency bimodal predictor config (<table size>)
-cpred:2lev      1 1024 8 0 # cache load-latency 2-level predictor config (<l1size> <l2size> <hist_size> <xor>)
-cpred:comb      1024 # cache load-latency combining predictor config (<meta_table_size>)
-cpred:ras                  0 # return address stack size (0 for no return stack)
-cpred:btb       512 4 # cache load-latency BTB config (<num_sets> <associativity>)
-decode:width               4 # instruction decode B/W (insts/cycle)
-issue:width                4 # instruction issue B/W (insts/cycle)
-issue:inorder          false # run pipeline with in-order issue
-issue:wrongpath         true # issue instructions down wrong execution paths
-commit:width               4 # instruction commit B/W (insts/cycle)
-rob:size                 224 # reorder buffer (ROB) size
-fetch:policy |icount|round_robin|       icount # fetch policy          
-recovery:model        squash # Alpha squash recovery or perfect predition: |squash|perfect|
-iq:size                   96 # issue queue (IQ) size 
-iq:issue_exec_delay            1 # minimum cycles between issue and execution
-fetch_rename_delay            4 # number of cycles between fetch and rename stages
-rename_dispatch_delay            1 # number cycles between rename and dispatch stages
-rf:size                  256 # register file (RF) size for each the INT and FP physical register file)
-lsq:size                 128 # load/store queue (LSQ) size
-cache:dl1       dl1:256:32:4:l # l1 data cache config, i.e., {<config>|none}
-cache:dl1lat               1 # l1 data cache hit latency (in cycles)
-cache:dl2       ul2:1024:64:8:l # l2 data cache config, i.e., {<config>|none}
-cache:dl2lat               6 # l2 data cache hit latency (in cycles)
-cache:il1       il1:512:32:2:l # l1 inst cache config, i.e., {<config>|dl1|dl2|none}
-cache:il1lat               1 # l1 instruction cache hit latency (in cycles)
-cache:il2                dl2 # l2 instruction cache config, i.e., {<config>|dl2|none}
-cache:il2lat               6 # l2 instruction cache hit latency (in cycles)
-cache:flush            false # flush caches on system calls
-cache:icompress        false # convert 64-bit inst addresses to 32-bit inst equivalents
-mem:lat         100 2 # memory access latency (<first_chunk> <inter_chunk>)
-mem:width                  8 # memory access bus width (in bytes)
-tlb:itlb        itlb:16:4096:4:l # instruction TLB config, i.e., {<config>|none}
-tlb:dtlb        dtlb:32:4096:4:l # data TLB config, i.e., {<config>|none}
-tlb:lat                   30 # inst/data TLB miss latency (in cycles)
-res:ialu                   4 # total number of integer ALU's available
-res:imult                  1 # total number of integer multiplier/dividers available
-res:memport                2 # total number of memory system ports available (to CPU)
-res:fpalu                  4 # total number of floating point ALU's available
-res:fpmult                 1 # total number of floating point multiplier/dividers available
# -pcstat              <null> # profile stat(s) against text addr's (mult uses ok)
-power:print_stats         true # print power statistics collected by wattch?

  Pipetrace range arguments are formatted as follows:

    {{@|#}<start>}:{{@|#|+}<end>}

  Both ends of the range are optional, if neither are specified, the entire
  execution is traced.  Ranges that start with a `@' designate an address
  range to be traced, those that start with an `#' designate a cycle count
  range.  All other range values represent an instruction count range.  The
  second argument, if specified with a `+', indicates a value relative
  to the first argument, e.g., 1000:+100 == 1000:1100.  Program symbols may
  be used in all contexts.

    Examples:   -ptrace FOO.trc #0:#1000
                -ptrace BAR.trc @2000:
                -ptrace BLAH.trc :1500
                -ptrace UXXE.trc :
                -ptrace FOOBAR.trc @main:+278

  Branch predictor configuration examples for 2-level predictor:
    Configurations:   N, M, W, X
      N   # entries in first level (# of shift register(s))
      W   width of shift register(s)
      M   # entries in 2nd level (# of counters, or other FSM)
      X   (yes-1/no-0) xor history and address for 2nd level index
    Sample predictors:
      GAg     : 1, W, 2^W, 0
      GAp     : 1, W, M (M > 2^W), 0
      PAg     : N, W, 2^W, 0
      PAp     : N, W, M (M == 2^(N+W)), 0
      gshare  : 1, W, 2^W, 1
  Predictor `comb' combines a bimodal and a 2-level predictor.

  The cache config parameter <config> has the following format:

    <name>:<nsets>:<bsize>:<assoc>:<repl>

    <name>   - name of the cache being defined
    <nsets>  - number of sets in the cache
    <bsize>  - block size of the cache
    <assoc>  - associativity of the cache
    <repl>   - block replacement strategy, 'l'-LRU, 'f'-FIFO, 'r'-random

    Examples:   -cache:dl1 dl1:4096:32:1:l
                -dtlb dtlb:128:4096:32:r

  Cache levels can be unified by pointing a level of the instruction cache
  hierarchy at the data cache hiearchy using the "dl1" and "dl2" cache
  configuration arguments.  Most sensible combinations are supported, e.g.,

    A unified l2 cache (il2 is pointed at dl2):
      -cache:il1 il1:128:64:1:l -cache:il2 dl2
      -cache:dl1 dl1:256:32:1:l -cache:dl2 ul2:1024:64:2:l

    Or, a fully unified cache hierarchy (il1 pointed at dl1):
      -cache:il1 dl1
      -cache:dl1 ul1:256:32:1:l -cache:dl2 ul2:1024:64:2:l



sim: ** fast forwarding insts **
warning: unsupported ioctl call: ioctl(536900702, ...)
warning: invalid/unimplemented syscall 226, PC=0x1200b4a54, RA=0x120098314, winging it
warning: unsupported ioctl call: ioctl(536900702, ...)
sim: ** starting performance simulation **
EPOCH STARTS
TH0 ROB: 4 LSQ: 3 IQ: 0 IPC: 0.0043
TH1 ROB: 105 LSQ: 85 IQ: 96, IPC: 2.1821
TH2 ROB: 4 LSQ: 4 IQ: 0, IPC: 0.0061
TH3 ROB: 4 LSQ: 2 IQ: 0, IPC: 0.0052
EPOCH ENDS
EPOCH STARTS
TH0 ROB: 4 LSQ: 3 IQ: 0 IPC: 0.0022
TH1 ROB: 104 LSQ: 85 IQ: 96, IPC: 2.1891
TH2 ROB: 4 LSQ: 4 IQ: 0, IPC: 0.0031
TH3 ROB: 4 LSQ: 2 IQ: 0, IPC: 0.0026
EPOCH ENDS
EPOCH STARTS
TH0 ROB: 4 LSQ: 3 IQ: 0 IPC: 0.0014
TH1 ROB: 104 LSQ: 85 IQ: 96, IPC: 2.1914
TH2 ROB: 4 LSQ: 4 IQ: 0, IPC: 0.0020
TH3 ROB: 4 LSQ: 2 IQ: 0, IPC: 0.0017
EPOCH ENDS
EPOCH STARTS
TH0 ROB: 4 LSQ: 3 IQ: 0 IPC: 0.0011
TH1 ROB: 104 LSQ: 86 IQ: 96, IPC: 2.1926
TH2 ROB: 4 LSQ: 4 IQ: 0, IPC: 0.0015
TH3 ROB: 4 LSQ: 2 IQ: 0, IPC: 0.0013
EPOCH ENDS
EPOCH STARTS
TH0 ROB: 4 LSQ: 3 IQ: 0 IPC: 0.0009
TH1 ROB: 107 LSQ: 88 IQ: 96, IPC: 2.1933
TH2 ROB: 4 LSQ: 4 IQ: 0, IPC: 0.0012
TH3 ROB: 4 LSQ: 2 IQ: 0, IPC: 0.0010
EPOCH ENDS
EPOCH STARTS
TH0 ROB: 4 LSQ: 3 IQ: 0 IPC: 0.0007
TH1 ROB: 105 LSQ: 86 IQ: 96, IPC: 2.1938
TH2 ROB: 4 LSQ: 4 IQ: 0, IPC: 0.0010
TH3 ROB: 4 LSQ: 2 IQ: 0, IPC: 0.0009
EPOCH ENDS
EPOCH STARTS
TH0 ROB: 4 LSQ: 3 IQ: 0 IPC: 0.0006
TH1 ROB: 105 LSQ: 85 IQ: 96, IPC: 2.1941
TH2 ROB: 4 LSQ: 4 IQ: 0, IPC: 0.0009
TH3 ROB: 4 LSQ: 2 IQ: 0, IPC: 0.0007
EPOCH ENDS
EPOCH STARTS
TH0 ROB: 4 LSQ: 3 IQ: 0 IPC: 0.0005
TH1 ROB: 104 LSQ: 85 IQ: 96, IPC: 2.1943
TH2 ROB: 4 LSQ: 4 IQ: 0, IPC: 0.0008
TH3 ROB: 4 LSQ: 2 IQ: 0, IPC: 0.0007
EPOCH ENDS
EPOCH STARTS
TH0 ROB: 4 LSQ: 3 IQ: 0 IPC: 0.0005
TH1 ROB: 105 LSQ: 87 IQ: 96, IPC: 2.1945
TH2 ROB: 4 LSQ: 4 IQ: 0, IPC: 0.0007
TH3 ROB: 4 LSQ: 2 IQ: 0, IPC: 0.0006
EPOCH ENDS
EPOCH STARTS
TH0 ROB: 4 LSQ: 3 IQ: 0 IPC: 0.0004
TH1 ROB: 105 LSQ: 86 IQ: 96, IPC: 2.1947
TH2 ROB: 4 LSQ: 4 IQ: 0, IPC: 0.0006
TH3 ROB: 4 LSQ: 2 IQ: 0, IPC: 0.0005
EPOCH ENDS
EPOCH STARTS
TH0 ROB: 4 LSQ: 3 IQ: 0 IPC: 0.0004
TH1 ROB: 104 LSQ: 85 IQ: 96, IPC: 2.1948
TH2 ROB: 4 LSQ: 4 IQ: 0, IPC: 0.0006
TH3 ROB: 4 LSQ: 2 IQ: 0, IPC: 0.0005
EPOCH ENDS
EPOCH STARTS
TH0 ROB: 4 LSQ: 3 IQ: 0 IPC: 0.0004
TH1 ROB: 105 LSQ: 86 IQ: 96, IPC: 2.1949
TH2 ROB: 4 LSQ: 4 IQ: 0, IPC: 0.0005
TH3 ROB: 4 LSQ: 2 IQ: 0, IPC: 0.0004
EPOCH ENDS
EPOCH STARTS
TH0 ROB: 4 LSQ: 3 IQ: 0 IPC: 0.0003
TH1 ROB: 105 LSQ: 87 IQ: 96, IPC: 2.1950
TH2 ROB: 4 LSQ: 4 IQ: 0, IPC: 0.0005
TH3 ROB: 4 LSQ: 2 IQ: 0, IPC: 0.0004
EPOCH ENDS
EPOCH STARTS
TH0 ROB: 4 LSQ: 3 IQ: 0 IPC: 0.0003
TH1 ROB: 105 LSQ: 87 IQ: 96, IPC: 2.1951
TH2 ROB: 4 LSQ: 4 IQ: 0, IPC: 0.0004
TH3 ROB: 4 LSQ: 2 IQ: 0, IPC: 0.0004
EPOCH ENDS
EPOCH STARTS
TH0 ROB: 4 LSQ: 3 IQ: 0 IPC: 0.0003
TH1 ROB: 106 LSQ: 87 IQ: 96, IPC: 2.1951
TH2 ROB: 4 LSQ: 4 IQ: 0, IPC: 0.0004
TH3 ROB: 4 LSQ: 2 IQ: 0, IPC: 0.0003
EPOCH ENDS
EPOCH STARTS
TH0 ROB: 4 LSQ: 3 IQ: 0 IPC: 0.0003
TH1 ROB: 104 LSQ: 85 IQ: 96, IPC: 2.1952
TH2 ROB: 4 LSQ: 4 IQ: 0, IPC: 0.0004
TH3 ROB: 4 LSQ: 2 IQ: 0, IPC: 0.0003
EPOCH ENDS
EPOCH STARTS
TH0 ROB: 4 LSQ: 3 IQ: 0 IPC: 0.0003
TH1 ROB: 104 LSQ: 85 IQ: 96, IPC: 2.1953
TH2 ROB: 4 LSQ: 4 IQ: 0, IPC: 0.0004
TH3 ROB: 4 LSQ: 2 IQ: 0, IPC: 0.0003
EPOCH ENDS
EPOCH STARTS
TH0 ROB: 4 LSQ: 3 IQ: 0 IPC: 0.0002
TH1 ROB: 105 LSQ: 87 IQ: 96, IPC: 2.1953
TH2 ROB: 4 LSQ: 4 IQ: 0, IPC: 0.0003
TH3 ROB: 4 LSQ: 2 IQ: 0, IPC: 0.0003
EPOCH ENDS
EPOCH STARTS
TH0 ROB: 4 LSQ: 3 IQ: 0 IPC: 0.0002
TH1 ROB: 106 LSQ: 87 IQ: 96, IPC: 2.1953
TH2 ROB: 4 LSQ: 4 IQ: 0, IPC: 0.0003
TH3 ROB: 4 LSQ: 2 IQ: 0, IPC: 0.0003
EPOCH ENDS
EPOCH STARTS
TH0 ROB: 4 LSQ: 3 IQ: 0 IPC: 0.0002
TH1 ROB: 106 LSQ: 87 IQ: 96, IPC: 2.1954
TH2 ROB: 4 LSQ: 4 IQ: 0, IPC: 0.0003
TH3 ROB: 4 LSQ: 2 IQ: 0, IPC: 0.0003
EPOCH ENDS
EPOCH STARTS
TH0 ROB: 4 LSQ: 3 IQ: 0 IPC: 0.0002
TH1 ROB: 106 LSQ: 87 IQ: 96, IPC: 2.1954
TH2 ROB: 4 LSQ: 4 IQ: 0, IPC: 0.0003
TH3 ROB: 4 LSQ: 2 IQ: 0, IPC: 0.0002
EPOCH ENDS
EPOCH STARTS
TH0 ROB: 4 LSQ: 3 IQ: 0 IPC: 0.0002
TH1 ROB: 104 LSQ: 86 IQ: 96, IPC: 2.1954
TH2 ROB: 4 LSQ: 4 IQ: 0, IPC: 0.0003
TH3 ROB: 4 LSQ: 2 IQ: 0, IPC: 0.0002
EPOCH ENDS
EPOCH STARTS
TH0 ROB: 4 LSQ: 3 IQ: 0 IPC: 0.0002
TH1 ROB: 104 LSQ: 87 IQ: 96, IPC: 2.1955
TH2 ROB: 4 LSQ: 4 IQ: 0, IPC: 0.0003
TH3 ROB: 4 LSQ: 2 IQ: 0, IPC: 0.0002
EPOCH ENDS
EPOCH STARTS
TH0 ROB: 4 LSQ: 3 IQ: 0 IPC: 0.0002
TH1 ROB: 105 LSQ: 86 IQ: 96, IPC: 2.1955
TH2 ROB: 4 LSQ: 4 IQ: 0, IPC: 0.0003
TH3 ROB: 4 LSQ: 2 IQ: 0, IPC: 0.0002
EPOCH ENDS
EPOCH STARTS
TH0 ROB: 4 LSQ: 3 IQ: 0 IPC: 0.0002
TH1 ROB: 105 LSQ: 86 IQ: 96, IPC: 2.1955
TH2 ROB: 4 LSQ: 4 IQ: 0, IPC: 0.0002
TH3 ROB: 4 LSQ: 2 IQ: 0, IPC: 0.0002
EPOCH ENDS
EPOCH STARTS
TH0 ROB: 4 LSQ: 3 IQ: 0 IPC: 0.0002
TH1 ROB: 106 LSQ: 87 IQ: 96, IPC: 2.1955
TH2 ROB: 4 LSQ: 4 IQ: 0, IPC: 0.0002
TH3 ROB: 4 LSQ: 2 IQ: 0, IPC: 0.0002
EPOCH ENDS
EPOCH STARTS
TH0 ROB: 4 LSQ: 3 IQ: 0 IPC: 0.0002
TH1 ROB: 105 LSQ: 87 IQ: 96, IPC: 2.1956
TH2 ROB: 4 LSQ: 4 IQ: 0, IPC: 0.0002
TH3 ROB: 4 LSQ: 2 IQ: 0, IPC: 0.0002
EPOCH ENDS
EPOCH STARTS
TH0 ROB: 4 LSQ: 3 IQ: 0 IPC: 0.0002
TH1 ROB: 105 LSQ: 86 IQ: 96, IPC: 2.1956
TH2 ROB: 4 LSQ: 4 IQ: 0, IPC: 0.0002
TH3 ROB: 4 LSQ: 2 IQ: 0, IPC: 0.0002
EPOCH ENDS
EPOCH STARTS
TH0 ROB: 4 LSQ: 3 IQ: 0 IPC: 0.0001
TH1 ROB: 105 LSQ: 86 IQ: 96, IPC: 2.1956
TH2 ROB: 4 LSQ: 4 IQ: 0, IPC: 0.0002
TH3 ROB: 4 LSQ: 2 IQ: 0, IPC: 0.0002
EPOCH ENDS
EPOCH STARTS
TH0 ROB: 4 LSQ: 3 IQ: 0 IPC: 0.0001
TH1 ROB: 105 LSQ: 86 IQ: 96, IPC: 2.1956
TH2 ROB: 4 LSQ: 4 IQ: 0, IPC: 0.0002
TH3 ROB: 4 LSQ: 2 IQ: 0, IPC: 0.0002
EPOCH ENDS
EPOCH STARTS
TH0 ROB: 4 LSQ: 3 IQ: 0 IPC: 0.0001
TH1 ROB: 105 LSQ: 86 IQ: 96, IPC: 2.1956
TH2 ROB: 4 LSQ: 4 IQ: 0, IPC: 0.0002
TH3 ROB: 4 LSQ: 2 IQ: 0, IPC: 0.0002
EPOCH ENDS
EPOCH STARTS
TH0 ROB: 4 LSQ: 3 IQ: 0 IPC: 0.0001
TH1 ROB: 105 LSQ: 87 IQ: 96, IPC: 2.1956
TH2 ROB: 4 LSQ: 4 IQ: 0, IPC: 0.0002
TH3 ROB: 4 LSQ: 2 IQ: 0, IPC: 0.0002
EPOCH ENDS
EPOCH STARTS
TH0 ROB: 4 LSQ: 3 IQ: 0 IPC: 0.0001
TH1 ROB: 105 LSQ: 86 IQ: 96, IPC: 2.1957
TH2 ROB: 4 LSQ: 4 IQ: 0, IPC: 0.0002
TH3 ROB: 4 LSQ: 2 IQ: 0, IPC: 0.0002
EPOCH ENDS
EPOCH STARTS
TH0 ROB: 4 LSQ: 3 IQ: 0 IPC: 0.0001
TH1 ROB: 105 LSQ: 86 IQ: 96, IPC: 2.1957
TH2 ROB: 4 LSQ: 4 IQ: 0, IPC: 0.0002
TH3 ROB: 4 LSQ: 2 IQ: 0, IPC: 0.0002
EPOCH ENDS
EPOCH STARTS
TH0 ROB: 4 LSQ: 3 IQ: 0 IPC: 0.0001
TH1 ROB: 105 LSQ: 86 IQ: 96, IPC: 2.1957
TH2 ROB: 4 LSQ: 4 IQ: 0, IPC: 0.0002
TH3 ROB: 4 LSQ: 2 IQ: 0, IPC: 0.0001
EPOCH ENDS
EPOCH STARTS
TH0 ROB: 4 LSQ: 3 IQ: 0 IPC: 0.0001
TH1 ROB: 105 LSQ: 87 IQ: 96, IPC: 2.1957
TH2 ROB: 4 LSQ: 4 IQ: 0, IPC: 0.0002
TH3 ROB: 4 LSQ: 2 IQ: 0, IPC: 0.0001
EPOCH ENDS
EPOCH STARTS
TH0 ROB: 4 LSQ: 3 IQ: 0 IPC: 0.0001
TH1 ROB: 105 LSQ: 88 IQ: 96, IPC: 2.1957
TH2 ROB: 4 LSQ: 4 IQ: 0, IPC: 0.0002
TH3 ROB: 4 LSQ: 2 IQ: 0, IPC: 0.0001
EPOCH ENDS
EPOCH STARTS
TH0 ROB: 4 LSQ: 3 IQ: 0 IPC: 0.0001
TH1 ROB: 104 LSQ: 85 IQ: 96, IPC: 2.1957
TH2 ROB: 4 LSQ: 4 IQ: 0, IPC: 0.0002
TH3 ROB: 4 LSQ: 2 IQ: 0, IPC: 0.0001
EPOCH ENDS
EPOCH STARTS
TH0 ROB: 4 LSQ: 3 IQ: 0 IPC: 0.0001
TH1 ROB: 104 LSQ: 85 IQ: 96, IPC: 2.1957
TH2 ROB: 4 LSQ: 4 IQ: 0, IPC: 0.0002
TH3 ROB: 4 LSQ: 2 IQ: 0, IPC: 0.0001
EPOCH ENDS
EPOCH STARTS
TH0 ROB: 4 LSQ: 3 IQ: 0 IPC: 0.0001
TH1 ROB: 105 LSQ: 86 IQ: 96, IPC: 2.1957
TH2 ROB: 4 LSQ: 4 IQ: 0, IPC: 0.0002
TH3 ROB: 4 LSQ: 2 IQ: 0, IPC: 0.0001
EPOCH ENDS
EPOCH STARTS
TH0 ROB: 4 LSQ: 3 IQ: 0 IPC: 0.0001
TH1 ROB: 105 LSQ: 87 IQ: 96, IPC: 2.1957
TH2 ROB: 4 LSQ: 4 IQ: 0, IPC: 0.0001
TH3 ROB: 4 LSQ: 2 IQ: 0, IPC: 0.0001
EPOCH ENDS
EPOCH STARTS
TH0 ROB: 4 LSQ: 3 IQ: 0 IPC: 0.0001
TH1 ROB: 106 LSQ: 87 IQ: 96, IPC: 2.1957
TH2 ROB: 4 LSQ: 4 IQ: 0, IPC: 0.0001
TH3 ROB: 4 LSQ: 2 IQ: 0, IPC: 0.0001
EPOCH ENDS
EPOCH STARTS
TH0 ROB: 4 LSQ: 3 IQ: 0 IPC: 0.0001
TH1 ROB: 104 LSQ: 85 IQ: 96, IPC: 2.1958
TH2 ROB: 4 LSQ: 4 IQ: 0, IPC: 0.0001
TH3 ROB: 4 LSQ: 2 IQ: 0, IPC: 0.0001
EPOCH ENDS
EPOCH STARTS
TH0 ROB: 4 LSQ: 3 IQ: 0 IPC: 0.0001
TH1 ROB: 104 LSQ: 85 IQ: 96, IPC: 2.1958
TH2 ROB: 4 LSQ: 4 IQ: 0, IPC: 0.0001
TH3 ROB: 4 LSQ: 2 IQ: 0, IPC: 0.0001
EPOCH ENDS
EPOCH STARTS
TH0 ROB: 4 LSQ: 3 IQ: 0 IPC: 0.0001
TH1 ROB: 104 LSQ: 85 IQ: 96, IPC: 2.1958
TH2 ROB: 4 LSQ: 4 IQ: 0, IPC: 0.0001
TH3 ROB: 4 LSQ: 2 IQ: 0, IPC: 0.0001
EPOCH ENDS
EPOCH STARTS
TH0 ROB: 4 LSQ: 3 IQ: 0 IPC: 0.0001
TH1 ROB: 105 LSQ: 87 IQ: 96, IPC: 2.1958
TH2 ROB: 4 LSQ: 4 IQ: 0, IPC: 0.0001
TH3 ROB: 4 LSQ: 2 IQ: 0, IPC: 0.0001
EPOCH ENDS
EPOCH STARTS
TH0 ROB: 4 LSQ: 3 IQ: 0 IPC: 0.0001
TH1 ROB: 105 LSQ: 86 IQ: 96, IPC: 2.1958
TH2 ROB: 4 LSQ: 4 IQ: 0, IPC: 0.0001
TH3 ROB: 4 LSQ: 2 IQ: 0, IPC: 0.0001
EPOCH ENDS
EPOCH STARTS
TH0 ROB: 4 LSQ: 3 IQ: 0 IPC: 0.0001
TH1 ROB: 104 LSQ: 85 IQ: 96, IPC: 2.1958
TH2 ROB: 4 LSQ: 4 IQ: 0, IPC: 0.0001
TH3 ROB: 4 LSQ: 2 IQ: 0, IPC: 0.0001
EPOCH ENDS
EPOCH STARTS
TH0 ROB: 4 LSQ: 3 IQ: 0 IPC: 0.0001
TH1 ROB: 104 LSQ: 85 IQ: 96, IPC: 2.1958
TH2 ROB: 4 LSQ: 4 IQ: 0, IPC: 0.0001
TH3 ROB: 4 LSQ: 2 IQ: 0, IPC: 0.0001
EPOCH ENDS
EPOCH STARTS
TH0 ROB: 4 LSQ: 3 IQ: 0 IPC: 0.0001
TH1 ROB: 104 LSQ: 87 IQ: 96, IPC: 2.1958
TH2 ROB: 4 LSQ: 4 IQ: 0, IPC: 0.0001
TH3 ROB: 4 LSQ: 2 IQ: 0, IPC: 0.0001
EPOCH ENDS
EPOCH STARTS
TH0 ROB: 4 LSQ: 3 IQ: 0 IPC: 0.0001
TH1 ROB: 105 LSQ: 87 IQ: 96, IPC: 2.1958
TH2 ROB: 4 LSQ: 4 IQ: 0, IPC: 0.0001
TH3 ROB: 4 LSQ: 2 IQ: 0, IPC: 0.0001
EPOCH ENDS
EPOCH STARTS
TH0 ROB: 4 LSQ: 3 IQ: 0 IPC: 0.0001
TH1 ROB: 105 LSQ: 85 IQ: 96, IPC: 2.1958
TH2 ROB: 4 LSQ: 4 IQ: 0, IPC: 0.0001
TH3 ROB: 4 LSQ: 2 IQ: 0, IPC: 0.0001
EPOCH ENDS
EPOCH STARTS
TH0 ROB: 4 LSQ: 3 IQ: 0 IPC: 0.0001
TH1 ROB: 104 LSQ: 85 IQ: 96, IPC: 2.1958
TH2 ROB: 4 LSQ: 4 IQ: 0, IPC: 0.0001
TH3 ROB: 4 LSQ: 2 IQ: 0, IPC: 0.0001
EPOCH ENDS
EPOCH STARTS
TH0 ROB: 4 LSQ: 3 IQ: 0 IPC: 0.0001
TH1 ROB: 104 LSQ: 85 IQ: 96, IPC: 2.1958
TH2 ROB: 4 LSQ: 4 IQ: 0, IPC: 0.0001
TH3 ROB: 4 LSQ: 2 IQ: 0, IPC: 0.0001
EPOCH ENDS
EPOCH STARTS
TH0 ROB: 4 LSQ: 3 IQ: 0 IPC: 0.0001
TH1 ROB: 104 LSQ: 86 IQ: 96, IPC: 2.1958
TH2 ROB: 4 LSQ: 4 IQ: 0, IPC: 0.0001
TH3 ROB: 4 LSQ: 2 IQ: 0, IPC: 0.0001
EPOCH ENDS
EPOCH STARTS
TH0 ROB: 4 LSQ: 3 IQ: 0 IPC: 0.0001
TH1 ROB: 107 LSQ: 88 IQ: 96, IPC: 2.1958
TH2 ROB: 4 LSQ: 4 IQ: 0, IPC: 0.0001
TH3 ROB: 4 LSQ: 2 IQ: 0, IPC: 0.0001
EPOCH ENDS
EPOCH STARTS
TH0 ROB: 4 LSQ: 3 IQ: 0 IPC: 0.0001
TH1 ROB: 105 LSQ: 86 IQ: 96, IPC: 2.1958
TH2 ROB: 4 LSQ: 4 IQ: 0, IPC: 0.0001
TH3 ROB: 4 LSQ: 2 IQ: 0, IPC: 0.0001
EPOCH ENDS
EPOCH STARTS
TH0 ROB: 4 LSQ: 3 IQ: 0 IPC: 0.0001
TH1 ROB: 105 LSQ: 85 IQ: 96, IPC: 2.1958
TH2 ROB: 4 LSQ: 4 IQ: 0, IPC: 0.0001
TH3 ROB: 4 LSQ: 2 IQ: 0, IPC: 0.0001
EPOCH ENDS
EPOCH STARTS
TH0 ROB: 4 LSQ: 3 IQ: 0 IPC: 0.0001
TH1 ROB: 104 LSQ: 85 IQ: 96, IPC: 2.1958
TH2 ROB: 4 LSQ: 4 IQ: 0, IPC: 0.0001
TH3 ROB: 4 LSQ: 2 IQ: 0, IPC: 0.0001
EPOCH ENDS
EPOCH STARTS
TH0 ROB: 4 LSQ: 3 IQ: 0 IPC: 0.0001
TH1 ROB: 105 LSQ: 87 IQ: 96, IPC: 2.1958
TH2 ROB: 4 LSQ: 4 IQ: 0, IPC: 0.0001
TH3 ROB: 4 LSQ: 2 IQ: 0, IPC: 0.0001
EPOCH ENDS
EPOCH STARTS
TH0 ROB: 4 LSQ: 3 IQ: 0 IPC: 0.0001
TH1 ROB: 105 LSQ: 86 IQ: 96, IPC: 2.1958
TH2 ROB: 4 LSQ: 4 IQ: 0, IPC: 0.0001
TH3 ROB: 4 LSQ: 2 IQ: 0, IPC: 0.0001
EPOCH ENDS
EPOCH STARTS
TH0 ROB: 4 LSQ: 3 IQ: 0 IPC: 0.0001
TH1 ROB: 104 LSQ: 85 IQ: 96, IPC: 2.1959
TH2 ROB: 4 LSQ: 4 IQ: 0, IPC: 0.0001
TH3 ROB: 4 LSQ: 2 IQ: 0, IPC: 0.0001
EPOCH ENDS
EPOCH STARTS
TH0 ROB: 4 LSQ: 3 IQ: 0 IPC: 0.0001
TH1 ROB: 105 LSQ: 86 IQ: 96, IPC: 2.1959
TH2 ROB: 4 LSQ: 4 IQ: 0, IPC: 0.0001
TH3 ROB: 4 LSQ: 2 IQ: 0, IPC: 0.0001
EPOCH ENDS
EPOCH STARTS
TH0 ROB: 4 LSQ: 3 IQ: 0 IPC: 0.0001
TH1 ROB: 105 LSQ: 87 IQ: 96, IPC: 2.1959
TH2 ROB: 4 LSQ: 4 IQ: 0, IPC: 0.0001
TH3 ROB: 4 LSQ: 2 IQ: 0, IPC: 0.0001
EPOCH ENDS
EPOCH STARTS
TH0 ROB: 4 LSQ: 3 IQ: 0 IPC: 0.0001
TH1 ROB: 105 LSQ: 87 IQ: 96, IPC: 2.1959
TH2 ROB: 4 LSQ: 4 IQ: 0, IPC: 0.0001
TH3 ROB: 4 LSQ: 2 IQ: 0, IPC: 0.0001
EPOCH ENDS
EPOCH STARTS
TH0 ROB: 4 LSQ: 3 IQ: 0 IPC: 0.0001
TH1 ROB: 106 LSQ: 87 IQ: 96, IPC: 2.1959
TH2 ROB: 4 LSQ: 4 IQ: 0, IPC: 0.0001
TH3 ROB: 4 LSQ: 2 IQ: 0, IPC: 0.0001
EPOCH ENDS
EPOCH STARTS
TH0 ROB: 4 LSQ: 3 IQ: 0 IPC: 0.0001
TH1 ROB: 104 LSQ: 85 IQ: 96, IPC: 2.1959
TH2 ROB: 4 LSQ: 4 IQ: 0, IPC: 0.0001
TH3 ROB: 4 LSQ: 2 IQ: 0, IPC: 0.0001
EPOCH ENDS
EPOCH STARTS
TH0 ROB: 4 LSQ: 3 IQ: 0 IPC: 0.0001
TH1 ROB: 104 LSQ: 85 IQ: 96, IPC: 2.1959
TH2 ROB: 4 LSQ: 4 IQ: 0, IPC: 0.0001
TH3 ROB: 4 LSQ: 2 IQ: 0, IPC: 0.0001
EPOCH ENDS
EPOCH STARTS
TH0 ROB: 4 LSQ: 3 IQ: 0 IPC: 0.0001
TH1 ROB: 105 LSQ: 87 IQ: 96, IPC: 2.1959
TH2 ROB: 4 LSQ: 4 IQ: 0, IPC: 0.0001
TH3 ROB: 4 LSQ: 2 IQ: 0, IPC: 0.0001
EPOCH ENDS
EPOCH STARTS
TH0 ROB: 4 LSQ: 3 IQ: 0 IPC: 0.0001
TH1 ROB: 106 LSQ: 87 IQ: 96, IPC: 2.1959
TH2 ROB: 4 LSQ: 4 IQ: 0, IPC: 0.0001
TH3 ROB: 4 LSQ: 2 IQ: 0, IPC: 0.0001
EPOCH ENDS
EPOCH STARTS
TH0 ROB: 4 LSQ: 3 IQ: 0 IPC: 0.0001
TH1 ROB: 106 LSQ: 87 IQ: 96, IPC: 2.1959
TH2 ROB: 4 LSQ: 4 IQ: 0, IPC: 0.0001
TH3 ROB: 4 LSQ: 2 IQ: 0, IPC: 0.0001
EPOCH ENDS
EPOCH STARTS
TH0 ROB: 4 LSQ: 3 IQ: 0 IPC: 0.0001
TH1 ROB: 106 LSQ: 87 IQ: 96, IPC: 2.1959
TH2 ROB: 4 LSQ: 4 IQ: 0, IPC: 0.0001
TH3 ROB: 4 LSQ: 2 IQ: 0, IPC: 0.0001
EPOCH ENDS
EPOCH STARTS
TH0 ROB: 4 LSQ: 3 IQ: 0 IPC: 0.0001
TH1 ROB: 104 LSQ: 86 IQ: 96, IPC: 2.1959
TH2 ROB: 4 LSQ: 4 IQ: 0, IPC: 0.0001
TH3 ROB: 4 LSQ: 2 IQ: 0, IPC: 0.0001
EPOCH ENDS
EPOCH STARTS
TH0 ROB: 4 LSQ: 3 IQ: 0 IPC: 0.0001
TH1 ROB: 104 LSQ: 87 IQ: 96, IPC: 2.1959
TH2 ROB: 4 LSQ: 4 IQ: 0, IPC: 0.0001
TH3 ROB: 4 LSQ: 2 IQ: 0, IPC: 0.0001
EPOCH ENDS
EPOCH STARTS
TH0 ROB: 4 LSQ: 3 IQ: 0 IPC: 0.0001
TH1 ROB: 105 LSQ: 86 IQ: 96, IPC: 2.1959
TH2 ROB: 4 LSQ: 4 IQ: 0, IPC: 0.0001
TH3 ROB: 4 LSQ: 2 IQ: 0, IPC: 0.0001
EPOCH ENDS
EPOCH STARTS
TH0 ROB: 4 LSQ: 3 IQ: 0 IPC: 0.0001
TH1 ROB: 105 LSQ: 86 IQ: 96, IPC: 2.1959
TH2 ROB: 4 LSQ: 4 IQ: 0, IPC: 0.0001
TH3 ROB: 4 LSQ: 2 IQ: 0, IPC: 0.0001
EPOCH ENDS
EPOCH STARTS
TH0 ROB: 4 LSQ: 3 IQ: 0 IPC: 0.0001
TH1 ROB: 106 LSQ: 87 IQ: 96, IPC: 2.1959
TH2 ROB: 4 LSQ: 4 IQ: 0, IPC: 0.0001
TH3 ROB: 4 LSQ: 2 IQ: 0, IPC: 0.0001
EPOCH ENDS
EPOCH STARTS
TH0 ROB: 4 LSQ: 3 IQ: 0 IPC: 0.0001
TH1 ROB: 105 LSQ: 87 IQ: 96, IPC: 2.1959
TH2 ROB: 4 LSQ: 4 IQ: 0, IPC: 0.0001
TH3 ROB: 4 LSQ: 2 IQ: 0, IPC: 0.0001
EPOCH ENDS
EPOCH STARTS
TH0 ROB: 4 LSQ: 3 IQ: 0 IPC: 0.0001
TH1 ROB: 105 LSQ: 86 IQ: 96, IPC: 2.1959
TH2 ROB: 4 LSQ: 4 IQ: 0, IPC: 0.0001
TH3 ROB: 4 LSQ: 2 IQ: 0, IPC: 0.0001
EPOCH ENDS
EPOCH STARTS
TH0 ROB: 4 LSQ: 3 IQ: 0 IPC: 0.0001
TH1 ROB: 105 LSQ: 86 IQ: 96, IPC: 2.1959
TH2 ROB: 4 LSQ: 4 IQ: 0, IPC: 0.0001
TH3 ROB: 4 LSQ: 2 IQ: 0, IPC: 0.0001
EPOCH ENDS
EPOCH STARTS
TH0 ROB: 4 LSQ: 3 IQ: 0 IPC: 0.0001
TH1 ROB: 105 LSQ: 86 IQ: 96, IPC: 2.1959
TH2 ROB: 4 LSQ: 4 IQ: 0, IPC: 0.0001
TH3 ROB: 4 LSQ: 2 IQ: 0, IPC: 0.0001
EPOCH ENDS
EPOCH STARTS
TH0 ROB: 4 LSQ: 3 IQ: 0 IPC: 0.0001
TH1 ROB: 105 LSQ: 86 IQ: 96, IPC: 2.1959
TH2 ROB: 4 LSQ: 4 IQ: 0, IPC: 0.0001
TH3 ROB: 4 LSQ: 2 IQ: 0, IPC: 0.0001
EPOCH ENDS
EPOCH STARTS
TH0 ROB: 4 LSQ: 3 IQ: 0 IPC: 0.0001
TH1 ROB: 105 LSQ: 87 IQ: 96, IPC: 2.1959
TH2 ROB: 4 LSQ: 4 IQ: 0, IPC: 0.0001
TH3 ROB: 4 LSQ: 2 IQ: 0, IPC: 0.0001
EPOCH ENDS
EPOCH STARTS
TH0 ROB: 4 LSQ: 3 IQ: 0 IPC: 0.0001
TH1 ROB: 105 LSQ: 86 IQ: 96, IPC: 2.1959
TH2 ROB: 4 LSQ: 4 IQ: 0, IPC: 0.0001
TH3 ROB: 4 LSQ: 2 IQ: 0, IPC: 0.0001
EPOCH ENDS
EPOCH STARTS
TH0 ROB: 4 LSQ: 3 IQ: 0 IPC: 0.0001
TH1 ROB: 105 LSQ: 86 IQ: 96, IPC: 2.1959
TH2 ROB: 4 LSQ: 4 IQ: 0, IPC: 0.0001
TH3 ROB: 4 LSQ: 2 IQ: 0, IPC: 0.0001
EPOCH ENDS
EPOCH STARTS
TH0 ROB: 44 LSQ: 14 IQ: 36 IPC: 0.0045
TH1 ROB: 0 LSQ: 0 IQ: 0, IPC: 2.1815
TH2 ROB: 41 LSQ: 34 IQ: 35, IPC: 0.0063
TH3 ROB: 28 LSQ: 5 IQ: 25, IPC: 0.0042
EPOCH ENDS
EPOCH STARTS
TH0 ROB: 4 LSQ: 0 IQ: 0 IPC: 0.0103
TH1 ROB: 4 LSQ: 1 IQ: 0, IPC: 2.1624
TH2 ROB: 105 LSQ: 88 IQ: 96, IPC: 0.0185
TH3 ROB: 4 LSQ: 2 IQ: 0, IPC: 0.0094
EPOCH ENDS
EPOCH STARTS
TH0 ROB: 4 LSQ: 0 IQ: 0 IPC: 0.0102
TH1 ROB: 4 LSQ: 1 IQ: 0, IPC: 2.1378
TH2 ROB: 104 LSQ: 85 IQ: 96, IPC: 0.0432
TH3 ROB: 4 LSQ: 2 IQ: 0, IPC: 0.0093
EPOCH ENDS
EPOCH STARTS
TH0 ROB: 4 LSQ: 0 IQ: 0 IPC: 0.0101
TH1 ROB: 4 LSQ: 1 IQ: 0, IPC: 2.1138
TH2 ROB: 104 LSQ: 85 IQ: 96, IPC: 0.0674
TH3 ROB: 4 LSQ: 2 IQ: 0, IPC: 0.0092
EPOCH ENDS
EPOCH STARTS
TH0 ROB: 4 LSQ: 0 IQ: 0 IPC: 0.0100
TH1 ROB: 4 LSQ: 1 IQ: 0, IPC: 2.0903
TH2 ROB: 105 LSQ: 86 IQ: 96, IPC: 0.0911
TH3 ROB: 4 LSQ: 2 IQ: 0, IPC: 0.0091
EPOCH ENDS
EPOCH STARTS
TH0 ROB: 4 LSQ: 0 IQ: 0 IPC: 0.0099
TH1 ROB: 4 LSQ: 1 IQ: 0, IPC: 2.0673
TH2 ROB: 105 LSQ: 87 IQ: 96, IPC: 0.1142
TH3 ROB: 4 LSQ: 2 IQ: 0, IPC: 0.0090
EPOCH ENDS
EPOCH STARTS
TH0 ROB: 4 LSQ: 0 IQ: 0 IPC: 0.0098
TH1 ROB: 4 LSQ: 1 IQ: 0, IPC: 2.0448
TH2 ROB: 106 LSQ: 87 IQ: 96, IPC: 0.1368
TH3 ROB: 4 LSQ: 2 IQ: 0, IPC: 0.0089
EPOCH ENDS
EPOCH STARTS
TH0 ROB: 4 LSQ: 0 IQ: 0 IPC: 0.0097
TH1 ROB: 4 LSQ: 1 IQ: 0, IPC: 2.0228
TH2 ROB: 104 LSQ: 85 IQ: 96, IPC: 0.1590
TH3 ROB: 4 LSQ: 2 IQ: 0, IPC: 0.0088
EPOCH ENDS
EPOCH STARTS
TH0 ROB: 4 LSQ: 0 IQ: 0 IPC: 0.0096
TH1 ROB: 4 LSQ: 1 IQ: 0, IPC: 2.0013
TH2 ROB: 104 LSQ: 85 IQ: 96, IPC: 0.1806
TH3 ROB: 4 LSQ: 2 IQ: 0, IPC: 0.0087
EPOCH ENDS
EPOCH STARTS
TH0 ROB: 4 LSQ: 0 IQ: 0 IPC: 0.0095
TH1 ROB: 4 LSQ: 1 IQ: 0, IPC: 1.9803
TH2 ROB: 104 LSQ: 85 IQ: 96, IPC: 0.2019
TH3 ROB: 4 LSQ: 2 IQ: 0, IPC: 0.0086
EPOCH ENDS
EPOCH STARTS
TH0 ROB: 4 LSQ: 0 IQ: 0 IPC: 0.0094
TH1 ROB: 4 LSQ: 1 IQ: 0, IPC: 1.9596
TH2 ROB: 105 LSQ: 87 IQ: 96, IPC: 0.2226
TH3 ROB: 4 LSQ: 2 IQ: 0, IPC: 0.0085
EPOCH ENDS
EPOCH STARTS
TH0 ROB: 4 LSQ: 0 IQ: 0 IPC: 0.0093
TH1 ROB: 4 LSQ: 1 IQ: 0, IPC: 1.9394
TH2 ROB: 105 LSQ: 86 IQ: 96, IPC: 0.2430
TH3 ROB: 4 LSQ: 2 IQ: 0, IPC: 0.0085
EPOCH ENDS
EPOCH STARTS
TH0 ROB: 4 LSQ: 0 IQ: 0 IPC: 0.0092
TH1 ROB: 4 LSQ: 1 IQ: 0, IPC: 1.9196
TH2 ROB: 104 LSQ: 85 IQ: 96, IPC: 0.2629
TH3 ROB: 4 LSQ: 2 IQ: 0, IPC: 0.0084
EPOCH ENDS
EPOCH STARTS
TH0 ROB: 4 LSQ: 0 IQ: 0 IPC: 0.0091
TH1 ROB: 4 LSQ: 1 IQ: 0, IPC: 1.9003
TH2 ROB: 104 LSQ: 85 IQ: 96, IPC: 0.2824
TH3 ROB: 4 LSQ: 2 IQ: 0, IPC: 0.0083
EPOCH ENDS
EPOCH STARTS
TH0 ROB: 4 LSQ: 0 IQ: 0 IPC: 0.0090
TH1 ROB: 4 LSQ: 1 IQ: 0, IPC: 1.8812
TH2 ROB: 104 LSQ: 87 IQ: 96, IPC: 0.3016
TH3 ROB: 4 LSQ: 2 IQ: 0, IPC: 0.0082
EPOCH ENDS
EPOCH STARTS
TH0 ROB: 4 LSQ: 0 IQ: 0 IPC: 0.0089
TH1 ROB: 4 LSQ: 1 IQ: 0, IPC: 1.8626
TH2 ROB: 105 LSQ: 87 IQ: 96, IPC: 0.3203
TH3 ROB: 4 LSQ: 2 IQ: 0, IPC: 0.0081
EPOCH ENDS
EPOCH STARTS
TH0 ROB: 4 LSQ: 0 IQ: 0 IPC: 0.0088
TH1 ROB: 4 LSQ: 1 IQ: 0, IPC: 1.8444
TH2 ROB: 105 LSQ: 85 IQ: 96, IPC: 0.3387
TH3 ROB: 4 LSQ: 2 IQ: 0, IPC: 0.0080
EPOCH ENDS
EPOCH STARTS
TH0 ROB: 4 LSQ: 0 IQ: 0 IPC: 0.0087
TH1 ROB: 4 LSQ: 1 IQ: 0, IPC: 1.8265
TH2 ROB: 104 LSQ: 85 IQ: 96, IPC: 0.3568
TH3 ROB: 4 LSQ: 2 IQ: 0, IPC: 0.0080
EPOCH ENDS
EPOCH STARTS
TH0 ROB: 4 LSQ: 0 IQ: 0 IPC: 0.0087
TH1 ROB: 4 LSQ: 1 IQ: 0, IPC: 1.8089
TH2 ROB: 104 LSQ: 85 IQ: 96, IPC: 0.3744
TH3 ROB: 4 LSQ: 2 IQ: 0, IPC: 0.0079
EPOCH ENDS
EPOCH STARTS
TH0 ROB: 4 LSQ: 0 IQ: 0 IPC: 0.0086
TH1 ROB: 4 LSQ: 1 IQ: 0, IPC: 1.7917
TH2 ROB: 104 LSQ: 86 IQ: 96, IPC: 0.3918
TH3 ROB: 4 LSQ: 2 IQ: 0, IPC: 0.0078
EPOCH ENDS
EPOCH STARTS
TH0 ROB: 4 LSQ: 0 IQ: 0 IPC: 0.0085
TH1 ROB: 4 LSQ: 1 IQ: 0, IPC: 1.7748
TH2 ROB: 107 LSQ: 88 IQ: 96, IPC: 0.4088
TH3 ROB: 4 LSQ: 2 IQ: 0, IPC: 0.0077
EPOCH ENDS
EPOCH STARTS
TH0 ROB: 4 LSQ: 0 IQ: 0 IPC: 0.0084
TH1 ROB: 4 LSQ: 1 IQ: 0, IPC: 1.7582
TH2 ROB: 105 LSQ: 86 IQ: 96, IPC: 0.4255
TH3 ROB: 4 LSQ: 2 IQ: 0, IPC: 0.0077
EPOCH ENDS
EPOCH STARTS
TH0 ROB: 4 LSQ: 0 IQ: 0 IPC: 0.0083
TH1 ROB: 4 LSQ: 1 IQ: 0, IPC: 1.7419
TH2 ROB: 105 LSQ: 85 IQ: 96, IPC: 0.4419
TH3 ROB: 4 LSQ: 2 IQ: 0, IPC: 0.0076
EPOCH ENDS
EPOCH STARTS
TH0 ROB: 4 LSQ: 0 IQ: 0 IPC: 0.0083
TH1 ROB: 4 LSQ: 1 IQ: 0, IPC: 1.7259
TH2 ROB: 104 LSQ: 85 IQ: 96, IPC: 0.4580
TH3 ROB: 4 LSQ: 2 IQ: 0, IPC: 0.0075
EPOCH ENDS
EPOCH STARTS
TH0 ROB: 4 LSQ: 0 IQ: 0 IPC: 0.0082
TH1 ROB: 4 LSQ: 1 IQ: 0, IPC: 1.7102
TH2 ROB: 105 LSQ: 87 IQ: 96, IPC: 0.4738
TH3 ROB: 4 LSQ: 2 IQ: 0, IPC: 0.0075
EPOCH ENDS
EPOCH STARTS
TH0 ROB: 4 LSQ: 0 IQ: 0 IPC: 0.0081
TH1 ROB: 4 LSQ: 1 IQ: 0, IPC: 1.6948
TH2 ROB: 105 LSQ: 86 IQ: 96, IPC: 0.4893
TH3 ROB: 4 LSQ: 2 IQ: 0, IPC: 0.0074
EPOCH ENDS
EPOCH STARTS
TH0 ROB: 4 LSQ: 0 IQ: 0 IPC: 0.0080
TH1 ROB: 4 LSQ: 1 IQ: 0, IPC: 1.6797
TH2 ROB: 104 LSQ: 85 IQ: 96, IPC: 0.5046
TH3 ROB: 4 LSQ: 2 IQ: 0, IPC: 0.0073
EPOCH ENDS
EPOCH STARTS
TH0 ROB: 4 LSQ: 0 IQ: 0 IPC: 0.0080
TH1 ROB: 4 LSQ: 1 IQ: 0, IPC: 1.6648
TH2 ROB: 105 LSQ: 86 IQ: 96, IPC: 0.5195
TH3 ROB: 4 LSQ: 2 IQ: 0, IPC: 0.0073
EPOCH ENDS
EPOCH STARTS
TH0 ROB: 4 LSQ: 0 IQ: 0 IPC: 0.0079
TH1 ROB: 4 LSQ: 1 IQ: 0, IPC: 1.6502
TH2 ROB: 105 LSQ: 87 IQ: 96, IPC: 0.5342
TH3 ROB: 4 LSQ: 2 IQ: 0, IPC: 0.0072
EPOCH ENDS
EPOCH STARTS
TH0 ROB: 4 LSQ: 0 IQ: 0 IPC: 0.0078
TH1 ROB: 4 LSQ: 1 IQ: 0, IPC: 1.6359
TH2 ROB: 105 LSQ: 87 IQ: 96, IPC: 0.5487
TH3 ROB: 4 LSQ: 2 IQ: 0, IPC: 0.0071
EPOCH ENDS
EPOCH STARTS
TH0 ROB: 4 LSQ: 0 IQ: 0 IPC: 0.0078
TH1 ROB: 4 LSQ: 1 IQ: 0, IPC: 1.6218
TH2 ROB: 106 LSQ: 87 IQ: 96, IPC: 0.5629
TH3 ROB: 4 LSQ: 2 IQ: 0, IPC: 0.0071
EPOCH ENDS
EPOCH STARTS
TH0 ROB: 4 LSQ: 0 IQ: 0 IPC: 0.0077
TH1 ROB: 4 LSQ: 1 IQ: 0, IPC: 1.6079
TH2 ROB: 104 LSQ: 85 IQ: 96, IPC: 0.5768
TH3 ROB: 4 LSQ: 2 IQ: 0, IPC: 0.0070
EPOCH ENDS
EPOCH STARTS
TH0 ROB: 4 LSQ: 0 IQ: 0 IPC: 0.0076
TH1 ROB: 4 LSQ: 1 IQ: 0, IPC: 1.5943
TH2 ROB: 104 LSQ: 85 IQ: 96, IPC: 0.5906
TH3 ROB: 4 LSQ: 2 IQ: 0, IPC: 0.0069
EPOCH ENDS
EPOCH STARTS
TH0 ROB: 4 LSQ: 0 IQ: 0 IPC: 0.0076
TH1 ROB: 4 LSQ: 1 IQ: 0, IPC: 1.5809
TH2 ROB: 105 LSQ: 87 IQ: 96, IPC: 0.6041
TH3 ROB: 4 LSQ: 2 IQ: 0, IPC: 0.0069
EPOCH ENDS
EPOCH STARTS
TH0 ROB: 4 LSQ: 0 IQ: 0 IPC: 0.0075
TH1 ROB: 4 LSQ: 1 IQ: 0, IPC: 1.5677
TH2 ROB: 106 LSQ: 87 IQ: 96, IPC: 0.6173
TH3 ROB: 4 LSQ: 2 IQ: 0, IPC: 0.0068
EPOCH ENDS
EPOCH STARTS
TH0 ROB: 4 LSQ: 0 IQ: 0 IPC: 0.0074
TH1 ROB: 4 LSQ: 1 IQ: 0, IPC: 1.5548
TH2 ROB: 106 LSQ: 87 IQ: 96, IPC: 0.6304
TH3 ROB: 4 LSQ: 2 IQ: 0, IPC: 0.0068
EPOCH ENDS
EPOCH STARTS
TH0 ROB: 4 LSQ: 0 IQ: 0 IPC: 0.0074
TH1 ROB: 4 LSQ: 1 IQ: 0, IPC: 1.5420
TH2 ROB: 106 LSQ: 87 IQ: 96, IPC: 0.6432
TH3 ROB: 4 LSQ: 2 IQ: 0, IPC: 0.0067
EPOCH ENDS
EPOCH STARTS
TH0 ROB: 4 LSQ: 0 IQ: 0 IPC: 0.0073
TH1 ROB: 4 LSQ: 1 IQ: 0, IPC: 1.5295
TH2 ROB: 104 LSQ: 86 IQ: 96, IPC: 0.6558
TH3 ROB: 4 LSQ: 2 IQ: 0, IPC: 0.0067
EPOCH ENDS
EPOCH STARTS
TH0 ROB: 4 LSQ: 0 IQ: 0 IPC: 0.0073
TH1 ROB: 4 LSQ: 1 IQ: 0, IPC: 1.5171
TH2 ROB: 104 LSQ: 87 IQ: 96, IPC: 0.6683
TH3 ROB: 4 LSQ: 2 IQ: 0, IPC: 0.0066
EPOCH ENDS
EPOCH STARTS
TH0 ROB: 4 LSQ: 0 IQ: 0 IPC: 0.0072
TH1 ROB: 4 LSQ: 1 IQ: 0, IPC: 1.5050
TH2 ROB: 105 LSQ: 86 IQ: 96, IPC: 0.6805
TH3 ROB: 4 LSQ: 2 IQ: 0, IPC: 0.0066
EPOCH ENDS
EPOCH STARTS
TH0 ROB: 4 LSQ: 0 IQ: 0 IPC: 0.0071
TH1 ROB: 4 LSQ: 1 IQ: 0, IPC: 1.4931
TH2 ROB: 105 LSQ: 86 IQ: 96, IPC: 0.6925
TH3 ROB: 4 LSQ: 2 IQ: 0, IPC: 0.0065
EPOCH ENDS
EPOCH STARTS
TH0 ROB: 4 LSQ: 0 IQ: 0 IPC: 0.0071
TH1 ROB: 4 LSQ: 1 IQ: 0, IPC: 1.4813
TH2 ROB: 106 LSQ: 87 IQ: 96, IPC: 0.7043
TH3 ROB: 4 LSQ: 2 IQ: 0, IPC: 0.0065
EPOCH ENDS
EPOCH STARTS
TH0 ROB: 4 LSQ: 0 IQ: 0 IPC: 0.0070
TH1 ROB: 4 LSQ: 1 IQ: 0, IPC: 1.4697
TH2 ROB: 105 LSQ: 87 IQ: 96, IPC: 0.7160
TH3 ROB: 4 LSQ: 2 IQ: 0, IPC: 0.0064
EPOCH ENDS
EPOCH STARTS
TH0 ROB: 4 LSQ: 0 IQ: 0 IPC: 0.0070
TH1 ROB: 4 LSQ: 1 IQ: 0, IPC: 1.4583
TH2 ROB: 105 LSQ: 86 IQ: 96, IPC: 0.7275
TH3 ROB: 4 LSQ: 2 IQ: 0, IPC: 0.0064
EPOCH ENDS
EPOCH STARTS
TH0 ROB: 4 LSQ: 0 IQ: 0 IPC: 0.0069
TH1 ROB: 4 LSQ: 1 IQ: 0, IPC: 1.4471
TH2 ROB: 105 LSQ: 86 IQ: 96, IPC: 0.7388
TH3 ROB: 4 LSQ: 2 IQ: 0, IPC: 0.0063
EPOCH ENDS
EPOCH STARTS
TH0 ROB: 4 LSQ: 0 IQ: 0 IPC: 0.0069
TH1 ROB: 4 LSQ: 1 IQ: 0, IPC: 1.4361
TH2 ROB: 105 LSQ: 86 IQ: 96, IPC: 0.7499
TH3 ROB: 4 LSQ: 2 IQ: 0, IPC: 0.0063
EPOCH ENDS
EPOCH STARTS
TH0 ROB: 4 LSQ: 0 IQ: 0 IPC: 0.0068
TH1 ROB: 4 LSQ: 1 IQ: 0, IPC: 1.4252
TH2 ROB: 105 LSQ: 86 IQ: 96, IPC: 0.7608
TH3 ROB: 4 LSQ: 2 IQ: 0, IPC: 0.0062
EPOCH ENDS
EPOCH STARTS
TH0 ROB: 4 LSQ: 0 IQ: 0 IPC: 0.0068
TH1 ROB: 4 LSQ: 1 IQ: 0, IPC: 1.4145
TH2 ROB: 105 LSQ: 87 IQ: 96, IPC: 0.7716
TH3 ROB: 4 LSQ: 2 IQ: 0, IPC: 0.0062
EPOCH ENDS
EPOCH STARTS
TH0 ROB: 4 LSQ: 0 IQ: 0 IPC: 0.0067
TH1 ROB: 4 LSQ: 1 IQ: 0, IPC: 1.4039
TH2 ROB: 105 LSQ: 86 IQ: 96, IPC: 0.7823
TH3 ROB: 4 LSQ: 2 IQ: 0, IPC: 0.0061
EPOCH ENDS
EPOCH STARTS
TH0 ROB: 4 LSQ: 0 IQ: 0 IPC: 0.0067
TH1 ROB: 4 LSQ: 1 IQ: 0, IPC: 1.3935
TH2 ROB: 105 LSQ: 86 IQ: 96, IPC: 0.7927
TH3 ROB: 4 LSQ: 2 IQ: 0, IPC: 0.0061
EPOCH ENDS
EPOCH STARTS
TH0 ROB: 4 LSQ: 0 IQ: 0 IPC: 0.0066
TH1 ROB: 4 LSQ: 1 IQ: 0, IPC: 1.3833
TH2 ROB: 105 LSQ: 86 IQ: 96, IPC: 0.8031
TH3 ROB: 4 LSQ: 2 IQ: 0, IPC: 0.0060
EPOCH ENDS
EPOCH STARTS
TH0 ROB: 4 LSQ: 0 IQ: 0 IPC: 0.0066
TH1 ROB: 4 LSQ: 1 IQ: 0, IPC: 1.3732
TH2 ROB: 105 LSQ: 87 IQ: 96, IPC: 0.8132
TH3 ROB: 4 LSQ: 2 IQ: 0, IPC: 0.0060
EPOCH ENDS
EPOCH STARTS
TH0 ROB: 4 LSQ: 0 IQ: 0 IPC: 0.0065
TH1 ROB: 4 LSQ: 1 IQ: 0, IPC: 1.3632
TH2 ROB: 105 LSQ: 88 IQ: 96, IPC: 0.8232
TH3 ROB: 4 LSQ: 2 IQ: 0, IPC: 0.0059
EPOCH ENDS
EPOCH STARTS
TH0 ROB: 4 LSQ: 0 IQ: 0 IPC: 0.0065
TH1 ROB: 4 LSQ: 1 IQ: 0, IPC: 1.3534
TH2 ROB: 104 LSQ: 85 IQ: 96, IPC: 0.8331
TH3 ROB: 4 LSQ: 2 IQ: 0, IPC: 0.0059
EPOCH ENDS
EPOCH STARTS
TH0 ROB: 4 LSQ: 0 IQ: 0 IPC: 0.0064
TH1 ROB: 4 LSQ: 1 IQ: 0, IPC: 1.3437
TH2 ROB: 104 LSQ: 85 IQ: 96, IPC: 0.8429
TH3 ROB: 4 LSQ: 2 IQ: 0, IPC: 0.0059
EPOCH ENDS
EPOCH STARTS
TH0 ROB: 4 LSQ: 0 IQ: 0 IPC: 0.0064
TH1 ROB: 4 LSQ: 1 IQ: 0, IPC: 1.3342
TH2 ROB: 105 LSQ: 86 IQ: 96, IPC: 0.8525
TH3 ROB: 4 LSQ: 2 IQ: 0, IPC: 0.0058
EPOCH ENDS
EPOCH STARTS
TH0 ROB: 4 LSQ: 0 IQ: 0 IPC: 0.0063
TH1 ROB: 4 LSQ: 1 IQ: 0, IPC: 1.3248
TH2 ROB: 105 LSQ: 87 IQ: 96, IPC: 0.8619
TH3 ROB: 4 LSQ: 2 IQ: 0, IPC: 0.0058
EPOCH ENDS
EPOCH STARTS
TH0 ROB: 4 LSQ: 0 IQ: 0 IPC: 0.0063
TH1 ROB: 4 LSQ: 1 IQ: 0, IPC: 1.3156
TH2 ROB: 106 LSQ: 87 IQ: 96, IPC: 0.8712
TH3 ROB: 4 LSQ: 2 IQ: 0, IPC: 0.0057
EPOCH ENDS
EPOCH STARTS
TH0 ROB: 4 LSQ: 0 IQ: 0 IPC: 0.0062
TH1 ROB: 4 LSQ: 1 IQ: 0, IPC: 1.3064
TH2 ROB: 104 LSQ: 85 IQ: 96, IPC: 0.8804
TH3 ROB: 4 LSQ: 2 IQ: 0, IPC: 0.0057
EPOCH ENDS
EPOCH STARTS
TH0 ROB: 4 LSQ: 0 IQ: 0 IPC: 0.0062
TH1 ROB: 4 LSQ: 1 IQ: 0, IPC: 1.2974
TH2 ROB: 104 LSQ: 85 IQ: 96, IPC: 0.8895
TH3 ROB: 4 LSQ: 2 IQ: 0, IPC: 0.0057
EPOCH ENDS
EPOCH STARTS
TH0 ROB: 4 LSQ: 0 IQ: 0 IPC: 0.0062
TH1 ROB: 4 LSQ: 1 IQ: 0, IPC: 1.2885
TH2 ROB: 104 LSQ: 85 IQ: 96, IPC: 0.8985
TH3 ROB: 4 LSQ: 2 IQ: 0, IPC: 0.0056
EPOCH ENDS
EPOCH STARTS
TH0 ROB: 4 LSQ: 0 IQ: 0 IPC: 0.0061
TH1 ROB: 4 LSQ: 1 IQ: 0, IPC: 1.2798
TH2 ROB: 105 LSQ: 87 IQ: 96, IPC: 0.9073
TH3 ROB: 4 LSQ: 2 IQ: 0, IPC: 0.0056
EPOCH ENDS
EPOCH STARTS
TH0 ROB: 4 LSQ: 0 IQ: 0 IPC: 0.0061
TH1 ROB: 4 LSQ: 1 IQ: 0, IPC: 1.2711
TH2 ROB: 105 LSQ: 86 IQ: 96, IPC: 0.9160
TH3 ROB: 4 LSQ: 2 IQ: 0, IPC: 0.0055
EPOCH ENDS
EPOCH STARTS
TH0 ROB: 4 LSQ: 0 IQ: 0 IPC: 0.0060
TH1 ROB: 4 LSQ: 1 IQ: 0, IPC: 1.2626
TH2 ROB: 104 LSQ: 85 IQ: 96, IPC: 0.9246
TH3 ROB: 4 LSQ: 2 IQ: 0, IPC: 0.0055
EPOCH ENDS
EPOCH STARTS
TH0 ROB: 4 LSQ: 0 IQ: 0 IPC: 0.0060
TH1 ROB: 4 LSQ: 1 IQ: 0, IPC: 1.2542
TH2 ROB: 104 LSQ: 85 IQ: 96, IPC: 0.9331
TH3 ROB: 4 LSQ: 2 IQ: 0, IPC: 0.0055
EPOCH ENDS
EPOCH STARTS
TH0 ROB: 4 LSQ: 0 IQ: 0 IPC: 0.0060
TH1 ROB: 4 LSQ: 1 IQ: 0, IPC: 1.2459
TH2 ROB: 104 LSQ: 87 IQ: 96, IPC: 0.9414
TH3 ROB: 4 LSQ: 2 IQ: 0, IPC: 0.0054
EPOCH ENDS
EPOCH STARTS
TH0 ROB: 4 LSQ: 0 IQ: 0 IPC: 0.0059
TH1 ROB: 4 LSQ: 1 IQ: 0, IPC: 1.2377
TH2 ROB: 105 LSQ: 87 IQ: 96, IPC: 0.9497
TH3 ROB: 4 LSQ: 2 IQ: 0, IPC: 0.0054
EPOCH ENDS
EPOCH STARTS
TH0 ROB: 4 LSQ: 0 IQ: 0 IPC: 0.0059
TH1 ROB: 4 LSQ: 1 IQ: 0, IPC: 1.2296
TH2 ROB: 105 LSQ: 85 IQ: 96, IPC: 0.9578
TH3 ROB: 4 LSQ: 2 IQ: 0, IPC: 0.0054
EPOCH ENDS
EPOCH STARTS
TH0 ROB: 4 LSQ: 0 IQ: 0 IPC: 0.0058
TH1 ROB: 4 LSQ: 1 IQ: 0, IPC: 1.2216
TH2 ROB: 104 LSQ: 85 IQ: 96, IPC: 0.9659
TH3 ROB: 4 LSQ: 2 IQ: 0, IPC: 0.0053
EPOCH ENDS
EPOCH STARTS
TH0 ROB: 4 LSQ: 0 IQ: 0 IPC: 0.0058
TH1 ROB: 4 LSQ: 1 IQ: 0, IPC: 1.2137
TH2 ROB: 104 LSQ: 85 IQ: 96, IPC: 0.9738
TH3 ROB: 4 LSQ: 2 IQ: 0, IPC: 0.0053
EPOCH ENDS
EPOCH STARTS
TH0 ROB: 4 LSQ: 0 IQ: 0 IPC: 0.0058
TH1 ROB: 4 LSQ: 1 IQ: 0, IPC: 1.2059
TH2 ROB: 104 LSQ: 86 IQ: 96, IPC: 0.9817
TH3 ROB: 4 LSQ: 2 IQ: 0, IPC: 0.0053
EPOCH ENDS
EPOCH STARTS
TH0 ROB: 4 LSQ: 0 IQ: 0 IPC: 0.0057
TH1 ROB: 4 LSQ: 1 IQ: 0, IPC: 1.1982
TH2 ROB: 107 LSQ: 88 IQ: 96, IPC: 0.9894
TH3 ROB: 4 LSQ: 2 IQ: 0, IPC: 0.0052
EPOCH ENDS
EPOCH STARTS
TH0 ROB: 4 LSQ: 0 IQ: 0 IPC: 0.0057
TH1 ROB: 4 LSQ: 1 IQ: 0, IPC: 1.1907
TH2 ROB: 105 LSQ: 86 IQ: 96, IPC: 0.9970
TH3 ROB: 4 LSQ: 2 IQ: 0, IPC: 0.0052
EPOCH ENDS
EPOCH STARTS
TH0 ROB: 4 LSQ: 0 IQ: 0 IPC: 0.0057
TH1 ROB: 4 LSQ: 1 IQ: 0, IPC: 1.1832
TH2 ROB: 105 LSQ: 85 IQ: 96, IPC: 1.0046
TH3 ROB: 4 LSQ: 2 IQ: 0, IPC: 0.0052
EPOCH ENDS
EPOCH STARTS
TH0 ROB: 4 LSQ: 0 IQ: 0 IPC: 0.0056
TH1 ROB: 4 LSQ: 1 IQ: 0, IPC: 1.1758
TH2 ROB: 104 LSQ: 85 IQ: 96, IPC: 1.0120
TH3 ROB: 4 LSQ: 2 IQ: 0, IPC: 0.0051
EPOCH ENDS
EPOCH STARTS
TH0 ROB: 4 LSQ: 0 IQ: 0 IPC: 0.0056
TH1 ROB: 4 LSQ: 1 IQ: 0, IPC: 1.1685
TH2 ROB: 105 LSQ: 87 IQ: 96, IPC: 1.0194
TH3 ROB: 4 LSQ: 2 IQ: 0, IPC: 0.0051
EPOCH ENDS
EPOCH STARTS
TH0 ROB: 4 LSQ: 0 IQ: 0 IPC: 0.0056
TH1 ROB: 4 LSQ: 1 IQ: 0, IPC: 1.1613
TH2 ROB: 105 LSQ: 86 IQ: 96, IPC: 1.0266
TH3 ROB: 4 LSQ: 2 IQ: 0, IPC: 0.0051
EPOCH ENDS
EPOCH STARTS
TH0 ROB: 4 LSQ: 0 IQ: 0 IPC: 0.0055
TH1 ROB: 4 LSQ: 1 IQ: 0, IPC: 1.1541
TH2 ROB: 104 LSQ: 85 IQ: 96, IPC: 1.0338
TH3 ROB: 4 LSQ: 2 IQ: 0, IPC: 0.0050
EPOCH ENDS
EPOCH STARTS
TH0 ROB: 4 LSQ: 0 IQ: 0 IPC: 0.0055
TH1 ROB: 4 LSQ: 1 IQ: 0, IPC: 1.1471
TH2 ROB: 105 LSQ: 86 IQ: 96, IPC: 1.0409
TH3 ROB: 4 LSQ: 2 IQ: 0, IPC: 0.0050
EPOCH ENDS
EPOCH STARTS
TH0 ROB: 4 LSQ: 0 IQ: 0 IPC: 0.0055
TH1 ROB: 4 LSQ: 1 IQ: 0, IPC: 1.1402
TH2 ROB: 105 LSQ: 87 IQ: 96, IPC: 1.0479
TH3 ROB: 4 LSQ: 2 IQ: 0, IPC: 0.0050
EPOCH ENDS
EPOCH STARTS
TH0 ROB: 4 LSQ: 0 IQ: 0 IPC: 0.0054
TH1 ROB: 4 LSQ: 1 IQ: 0, IPC: 1.1333
TH2 ROB: 105 LSQ: 87 IQ: 96, IPC: 1.0548
TH3 ROB: 4 LSQ: 2 IQ: 0, IPC: 0.0049
EPOCH ENDS
EPOCH STARTS
TH0 ROB: 4 LSQ: 0 IQ: 0 IPC: 0.0054
TH1 ROB: 4 LSQ: 1 IQ: 0, IPC: 1.1265
TH2 ROB: 106 LSQ: 87 IQ: 96, IPC: 1.0616
TH3 ROB: 4 LSQ: 2 IQ: 0, IPC: 0.0049
EPOCH ENDS
EPOCH STARTS
TH0 ROB: 4 LSQ: 0 IQ: 0 IPC: 0.0054
TH1 ROB: 4 LSQ: 1 IQ: 0, IPC: 1.1198
TH2 ROB: 104 LSQ: 85 IQ: 96, IPC: 1.0684
TH3 ROB: 4 LSQ: 2 IQ: 0, IPC: 0.0049
EPOCH ENDS
EPOCH STARTS
TH0 ROB: 4 LSQ: 0 IQ: 0 IPC: 0.0053
TH1 ROB: 4 LSQ: 1 IQ: 0, IPC: 1.1132
TH2 ROB: 104 LSQ: 85 IQ: 96, IPC: 1.0751
TH3 ROB: 4 LSQ: 2 IQ: 0, IPC: 0.0049
EPOCH ENDS
EPOCH STARTS
TH0 ROB: 4 LSQ: 0 IQ: 0 IPC: 0.0053
TH1 ROB: 4 LSQ: 1 IQ: 0, IPC: 1.1066
TH2 ROB: 105 LSQ: 87 IQ: 96, IPC: 1.0817
TH3 ROB: 4 LSQ: 2 IQ: 0, IPC: 0.0048
EPOCH ENDS
EPOCH STARTS
TH0 ROB: 4 LSQ: 0 IQ: 0 IPC: 0.0053
TH1 ROB: 4 LSQ: 1 IQ: 0, IPC: 1.1001
TH2 ROB: 106 LSQ: 87 IQ: 96, IPC: 1.0882
TH3 ROB: 4 LSQ: 2 IQ: 0, IPC: 0.0048
EPOCH ENDS
EPOCH STARTS
TH0 ROB: 4 LSQ: 0 IQ: 0 IPC: 0.0052
TH1 ROB: 4 LSQ: 1 IQ: 0, IPC: 1.0937
TH2 ROB: 106 LSQ: 87 IQ: 96, IPC: 1.0946
TH3 ROB: 4 LSQ: 2 IQ: 0, IPC: 0.0048
EPOCH ENDS
EPOCH STARTS
TH0 ROB: 4 LSQ: 0 IQ: 0 IPC: 0.0052
TH1 ROB: 4 LSQ: 1 IQ: 0, IPC: 1.0874
TH2 ROB: 106 LSQ: 87 IQ: 96, IPC: 1.1010
TH3 ROB: 4 LSQ: 2 IQ: 0, IPC: 0.0047
EPOCH ENDS
EPOCH STARTS
TH0 ROB: 4 LSQ: 0 IQ: 0 IPC: 0.0052
TH1 ROB: 4 LSQ: 1 IQ: 0, IPC: 1.0812
TH2 ROB: 104 LSQ: 86 IQ: 96, IPC: 1.1073
TH3 ROB: 4 LSQ: 2 IQ: 0, IPC: 0.0047
EPOCH ENDS
EPOCH STARTS
TH0 ROB: 4 LSQ: 0 IQ: 0 IPC: 0.0051
TH1 ROB: 4 LSQ: 1 IQ: 0, IPC: 1.0750
TH2 ROB: 104 LSQ: 87 IQ: 96, IPC: 1.1135
TH3 ROB: 4 LSQ: 2 IQ: 0, IPC: 0.0047
EPOCH ENDS
EPOCH STARTS
TH0 ROB: 4 LSQ: 0 IQ: 0 IPC: 0.0051
TH1 ROB: 4 LSQ: 1 IQ: 0, IPC: 1.0689
TH2 ROB: 105 LSQ: 86 IQ: 96, IPC: 1.1197
TH3 ROB: 4 LSQ: 2 IQ: 0, IPC: 0.0047
EPOCH ENDS
EPOCH STARTS
TH0 ROB: 4 LSQ: 0 IQ: 0 IPC: 0.0051
TH1 ROB: 4 LSQ: 1 IQ: 0, IPC: 1.0629
TH2 ROB: 105 LSQ: 86 IQ: 96, IPC: 1.1257
TH3 ROB: 4 LSQ: 2 IQ: 0, IPC: 0.0046
EPOCH ENDS
EPOCH STARTS
TH0 ROB: 4 LSQ: 0 IQ: 0 IPC: 0.0051
TH1 ROB: 4 LSQ: 1 IQ: 0, IPC: 1.0569
TH2 ROB: 106 LSQ: 87 IQ: 96, IPC: 1.1317
TH3 ROB: 4 LSQ: 2 IQ: 0, IPC: 0.0046
EPOCH ENDS
EPOCH STARTS
TH0 ROB: 4 LSQ: 0 IQ: 0 IPC: 0.0050
TH1 ROB: 4 LSQ: 1 IQ: 0, IPC: 1.0510
TH2 ROB: 105 LSQ: 87 IQ: 96, IPC: 1.1377
TH3 ROB: 4 LSQ: 2 IQ: 0, IPC: 0.0046
EPOCH ENDS
EPOCH STARTS
TH0 ROB: 4 LSQ: 0 IQ: 0 IPC: 0.0050
TH1 ROB: 4 LSQ: 1 IQ: 0, IPC: 1.0451
TH2 ROB: 105 LSQ: 86 IQ: 96, IPC: 1.1436
TH3 ROB: 4 LSQ: 2 IQ: 0, IPC: 0.0046
EPOCH ENDS
EPOCH STARTS
TH0 ROB: 4 LSQ: 0 IQ: 0 IPC: 0.0050
TH1 ROB: 4 LSQ: 1 IQ: 0, IPC: 1.0394
TH2 ROB: 105 LSQ: 86 IQ: 96, IPC: 1.1494
TH3 ROB: 4 LSQ: 2 IQ: 0, IPC: 0.0045
EPOCH ENDS
EPOCH STARTS
TH0 ROB: 4 LSQ: 0 IQ: 0 IPC: 0.0049
TH1 ROB: 4 LSQ: 1 IQ: 0, IPC: 1.0337
TH2 ROB: 105 LSQ: 86 IQ: 96, IPC: 1.1551
TH3 ROB: 4 LSQ: 2 IQ: 0, IPC: 0.0045
EPOCH ENDS
EPOCH STARTS
TH0 ROB: 4 LSQ: 0 IQ: 0 IPC: 0.0049
TH1 ROB: 4 LSQ: 1 IQ: 0, IPC: 1.0280
TH2 ROB: 105 LSQ: 86 IQ: 96, IPC: 1.1608
TH3 ROB: 4 LSQ: 2 IQ: 0, IPC: 0.0045
EPOCH ENDS
EPOCH STARTS
TH0 ROB: 4 LSQ: 0 IQ: 0 IPC: 0.0049
TH1 ROB: 4 LSQ: 1 IQ: 0, IPC: 1.0224
TH2 ROB: 105 LSQ: 87 IQ: 96, IPC: 1.1665
TH3 ROB: 4 LSQ: 2 IQ: 0, IPC: 0.0045
EPOCH ENDS
EPOCH STARTS
TH0 ROB: 4 LSQ: 0 IQ: 0 IPC: 0.0049
TH1 ROB: 4 LSQ: 1 IQ: 0, IPC: 1.0169
TH2 ROB: 105 LSQ: 86 IQ: 96, IPC: 1.1720
TH3 ROB: 4 LSQ: 2 IQ: 0, IPC: 0.0044
EPOCH ENDS
EPOCH STARTS
TH0 ROB: 4 LSQ: 0 IQ: 0 IPC: 0.0048
TH1 ROB: 4 LSQ: 1 IQ: 0, IPC: 1.0114
TH2 ROB: 105 LSQ: 86 IQ: 96, IPC: 1.1775
TH3 ROB: 4 LSQ: 2 IQ: 0, IPC: 0.0044
EPOCH ENDS
EPOCH STARTS
TH0 ROB: 4 LSQ: 0 IQ: 0 IPC: 0.0048
TH1 ROB: 4 LSQ: 1 IQ: 0, IPC: 1.0060
TH2 ROB: 105 LSQ: 86 IQ: 96, IPC: 1.1830
TH3 ROB: 4 LSQ: 2 IQ: 0, IPC: 0.0044
EPOCH ENDS
EPOCH STARTS
TH0 ROB: 4 LSQ: 0 IQ: 0 IPC: 0.0048
TH1 ROB: 4 LSQ: 1 IQ: 0, IPC: 1.0007
TH2 ROB: 105 LSQ: 87 IQ: 96, IPC: 1.1884
TH3 ROB: 4 LSQ: 2 IQ: 0, IPC: 0.0044
EPOCH ENDS
EPOCH STARTS
TH0 ROB: 4 LSQ: 0 IQ: 0 IPC: 0.0048
TH1 ROB: 4 LSQ: 1 IQ: 0, IPC: 0.9954
TH2 ROB: 105 LSQ: 88 IQ: 96, IPC: 1.1937
TH3 ROB: 4 LSQ: 2 IQ: 0, IPC: 0.0043
EPOCH ENDS
EPOCH STARTS
TH0 ROB: 4 LSQ: 0 IQ: 0 IPC: 0.0047
TH1 ROB: 4 LSQ: 1 IQ: 0, IPC: 0.9901
TH2 ROB: 104 LSQ: 85 IQ: 96, IPC: 1.1990
TH3 ROB: 4 LSQ: 2 IQ: 0, IPC: 0.0043
EPOCH ENDS
EPOCH STARTS
TH0 ROB: 4 LSQ: 0 IQ: 0 IPC: 0.0047
TH1 ROB: 4 LSQ: 1 IQ: 0, IPC: 0.9849
TH2 ROB: 104 LSQ: 85 IQ: 96, IPC: 1.2042
TH3 ROB: 4 LSQ: 2 IQ: 0, IPC: 0.0043
EPOCH ENDS
EPOCH STARTS
TH0 ROB: 4 LSQ: 0 IQ: 0 IPC: 0.0047
TH1 ROB: 4 LSQ: 1 IQ: 0, IPC: 0.9798
TH2 ROB: 105 LSQ: 86 IQ: 96, IPC: 1.2094
TH3 ROB: 4 LSQ: 2 IQ: 0, IPC: 0.0043
EPOCH ENDS
EPOCH STARTS
TH0 ROB: 4 LSQ: 0 IQ: 0 IPC: 0.0047
TH1 ROB: 4 LSQ: 1 IQ: 0, IPC: 0.9747
TH2 ROB: 105 LSQ: 87 IQ: 96, IPC: 1.2145
TH3 ROB: 4 LSQ: 2 IQ: 0, IPC: 0.0042
EPOCH ENDS
EPOCH STARTS
TH0 ROB: 4 LSQ: 0 IQ: 0 IPC: 0.0046
TH1 ROB: 4 LSQ: 1 IQ: 0, IPC: 0.9697
TH2 ROB: 106 LSQ: 87 IQ: 96, IPC: 1.2195
TH3 ROB: 4 LSQ: 2 IQ: 0, IPC: 0.0042
EPOCH ENDS
EPOCH STARTS
TH0 ROB: 4 LSQ: 0 IQ: 0 IPC: 0.0046
TH1 ROB: 4 LSQ: 1 IQ: 0, IPC: 0.9647
TH2 ROB: 104 LSQ: 85 IQ: 96, IPC: 1.2245
TH3 ROB: 4 LSQ: 2 IQ: 0, IPC: 0.0042
EPOCH ENDS
EPOCH STARTS
TH0 ROB: 4 LSQ: 0 IQ: 0 IPC: 0.0046
TH1 ROB: 4 LSQ: 1 IQ: 0, IPC: 0.9598
TH2 ROB: 104 LSQ: 85 IQ: 96, IPC: 1.2295
TH3 ROB: 4 LSQ: 2 IQ: 0, IPC: 0.0042
EPOCH ENDS
EPOCH STARTS
TH0 ROB: 4 LSQ: 0 IQ: 0 IPC: 0.0046
TH1 ROB: 4 LSQ: 1 IQ: 0, IPC: 0.9549
TH2 ROB: 104 LSQ: 85 IQ: 96, IPC: 1.2344
TH3 ROB: 4 LSQ: 2 IQ: 0, IPC: 0.0042
EPOCH ENDS
EPOCH STARTS
TH0 ROB: 4 LSQ: 0 IQ: 0 IPC: 0.0045
TH1 ROB: 4 LSQ: 1 IQ: 0, IPC: 0.9501
TH2 ROB: 105 LSQ: 87 IQ: 96, IPC: 1.2393
TH3 ROB: 4 LSQ: 2 IQ: 0, IPC: 0.0041
EPOCH ENDS
EPOCH STARTS
TH0 ROB: 4 LSQ: 0 IQ: 0 IPC: 0.0045
TH1 ROB: 4 LSQ: 1 IQ: 0, IPC: 0.9454
TH2 ROB: 105 LSQ: 86 IQ: 96, IPC: 1.2441
TH3 ROB: 4 LSQ: 2 IQ: 0, IPC: 0.0041
EPOCH ENDS
EPOCH STARTS
TH0 ROB: 4 LSQ: 0 IQ: 0 IPC: 0.0045
TH1 ROB: 4 LSQ: 1 IQ: 0, IPC: 0.9406
TH2 ROB: 104 LSQ: 85 IQ: 96, IPC: 1.2488
TH3 ROB: 4 LSQ: 2 IQ: 0, IPC: 0.0041
EPOCH ENDS
EPOCH STARTS
TH0 ROB: 4 LSQ: 0 IQ: 0 IPC: 0.0045
TH1 ROB: 4 LSQ: 1 IQ: 0, IPC: 0.9359
TH2 ROB: 104 LSQ: 85 IQ: 96, IPC: 1.2535
TH3 ROB: 4 LSQ: 2 IQ: 0, IPC: 0.0041
EPOCH ENDS
EPOCH STARTS
TH0 ROB: 4 LSQ: 0 IQ: 0 IPC: 0.0045
TH1 ROB: 4 LSQ: 1 IQ: 0, IPC: 0.9313
TH2 ROB: 104 LSQ: 87 IQ: 96, IPC: 1.2582
TH3 ROB: 4 LSQ: 2 IQ: 0, IPC: 0.0041
EPOCH ENDS
EPOCH STARTS
TH0 ROB: 4 LSQ: 0 IQ: 0 IPC: 0.0044
TH1 ROB: 4 LSQ: 1 IQ: 0, IPC: 0.9267
TH2 ROB: 105 LSQ: 87 IQ: 96, IPC: 1.2628
TH3 ROB: 4 LSQ: 2 IQ: 0, IPC: 0.0040
EPOCH ENDS
EPOCH STARTS
TH0 ROB: 4 LSQ: 0 IQ: 0 IPC: 0.0044
TH1 ROB: 4 LSQ: 1 IQ: 0, IPC: 0.9222
TH2 ROB: 105 LSQ: 85 IQ: 96, IPC: 1.2674
TH3 ROB: 4 LSQ: 2 IQ: 0, IPC: 0.0040
EPOCH ENDS
EPOCH STARTS
TH0 ROB: 4 LSQ: 0 IQ: 0 IPC: 0.0044
TH1 ROB: 4 LSQ: 1 IQ: 0, IPC: 0.9177
TH2 ROB: 104 LSQ: 85 IQ: 96, IPC: 1.2719
TH3 ROB: 4 LSQ: 2 IQ: 0, IPC: 0.0040
EPOCH ENDS
EPOCH STARTS
TH0 ROB: 4 LSQ: 0 IQ: 0 IPC: 0.0044
TH1 ROB: 4 LSQ: 1 IQ: 0, IPC: 0.9132
TH2 ROB: 104 LSQ: 85 IQ: 96, IPC: 1.2764
TH3 ROB: 4 LSQ: 2 IQ: 0, IPC: 0.0040
EPOCH ENDS
EPOCH STARTS
TH0 ROB: 4 LSQ: 0 IQ: 0 IPC: 0.0043
TH1 ROB: 4 LSQ: 1 IQ: 0, IPC: 0.9088
TH2 ROB: 104 LSQ: 86 IQ: 96, IPC: 1.2809
TH3 ROB: 4 LSQ: 2 IQ: 0, IPC: 0.0040
EPOCH ENDS
EPOCH STARTS
TH0 ROB: 4 LSQ: 0 IQ: 0 IPC: 0.0043
TH1 ROB: 4 LSQ: 1 IQ: 0, IPC: 0.9044
TH2 ROB: 107 LSQ: 88 IQ: 96, IPC: 1.2853
TH3 ROB: 4 LSQ: 2 IQ: 0, IPC: 0.0039
EPOCH ENDS
EPOCH STARTS
TH0 ROB: 4 LSQ: 0 IQ: 0 IPC: 0.0043
TH1 ROB: 4 LSQ: 1 IQ: 0, IPC: 0.9001
TH2 ROB: 105 LSQ: 86 IQ: 96, IPC: 1.2896
TH3 ROB: 4 LSQ: 2 IQ: 0, IPC: 0.0039
EPOCH ENDS
EPOCH STARTS
TH0 ROB: 4 LSQ: 0 IQ: 0 IPC: 0.0043
TH1 ROB: 4 LSQ: 1 IQ: 0, IPC: 0.8958
TH2 ROB: 105 LSQ: 85 IQ: 96, IPC: 1.2939
TH3 ROB: 4 LSQ: 2 IQ: 0, IPC: 0.0039
EPOCH ENDS
EPOCH STARTS
TH0 ROB: 4 LSQ: 0 IQ: 0 IPC: 0.0043
TH1 ROB: 4 LSQ: 1 IQ: 0, IPC: 0.8916
TH2 ROB: 104 LSQ: 85 IQ: 96, IPC: 1.2982
TH3 ROB: 4 LSQ: 2 IQ: 0, IPC: 0.0039
EPOCH ENDS
EPOCH STARTS
TH0 ROB: 4 LSQ: 0 IQ: 0 IPC: 0.0042
TH1 ROB: 4 LSQ: 1 IQ: 0, IPC: 0.8874
TH2 ROB: 105 LSQ: 87 IQ: 96, IPC: 1.3024
TH3 ROB: 4 LSQ: 2 IQ: 0, IPC: 0.0039
EPOCH ENDS
EPOCH STARTS
TH0 ROB: 4 LSQ: 0 IQ: 0 IPC: 0.0042
TH1 ROB: 4 LSQ: 1 IQ: 0, IPC: 0.8832
TH2 ROB: 105 LSQ: 86 IQ: 96, IPC: 1.3066
TH3 ROB: 4 LSQ: 2 IQ: 0, IPC: 0.0038
EPOCH ENDS
EPOCH STARTS
TH0 ROB: 4 LSQ: 0 IQ: 0 IPC: 0.0042
TH1 ROB: 4 LSQ: 1 IQ: 0, IPC: 0.8791
TH2 ROB: 104 LSQ: 85 IQ: 96, IPC: 1.3108
TH3 ROB: 4 LSQ: 2 IQ: 0, IPC: 0.0038
EPOCH ENDS
EPOCH STARTS
TH0 ROB: 4 LSQ: 0 IQ: 0 IPC: 0.0042
TH1 ROB: 4 LSQ: 1 IQ: 0, IPC: 0.8750
TH2 ROB: 105 LSQ: 86 IQ: 96, IPC: 1.3149
TH3 ROB: 4 LSQ: 2 IQ: 0, IPC: 0.0038
EPOCH ENDS
EPOCH STARTS
TH0 ROB: 4 LSQ: 0 IQ: 0 IPC: 0.0042
TH1 ROB: 4 LSQ: 1 IQ: 0, IPC: 0.8709
TH2 ROB: 105 LSQ: 87 IQ: 96, IPC: 1.3190
TH3 ROB: 4 LSQ: 2 IQ: 0, IPC: 0.0038
EPOCH ENDS
EPOCH STARTS
TH0 ROB: 4 LSQ: 0 IQ: 0 IPC: 0.0041
TH1 ROB: 4 LSQ: 1 IQ: 0, IPC: 0.8669
TH2 ROB: 105 LSQ: 87 IQ: 96, IPC: 1.3230
TH3 ROB: 4 LSQ: 2 IQ: 0, IPC: 0.0038
EPOCH ENDS
EPOCH STARTS
TH0 ROB: 4 LSQ: 0 IQ: 0 IPC: 0.0041
TH1 ROB: 4 LSQ: 1 IQ: 0, IPC: 0.8630
TH2 ROB: 106 LSQ: 87 IQ: 96, IPC: 1.3270
TH3 ROB: 4 LSQ: 2 IQ: 0, IPC: 0.0038
EPOCH ENDS
EPOCH STARTS
TH0 ROB: 4 LSQ: 0 IQ: 0 IPC: 0.0041
TH1 ROB: 4 LSQ: 1 IQ: 0, IPC: 0.8590
TH2 ROB: 104 LSQ: 85 IQ: 96, IPC: 1.3310
TH3 ROB: 4 LSQ: 2 IQ: 0, IPC: 0.0037
EPOCH ENDS
EPOCH STARTS
TH0 ROB: 4 LSQ: 0 IQ: 0 IPC: 0.0041
TH1 ROB: 4 LSQ: 1 IQ: 0, IPC: 0.8551
TH2 ROB: 104 LSQ: 85 IQ: 96, IPC: 1.3349
TH3 ROB: 4 LSQ: 2 IQ: 0, IPC: 0.0037
EPOCH ENDS
EPOCH STARTS
TH0 ROB: 4 LSQ: 0 IQ: 0 IPC: 0.0041
TH1 ROB: 4 LSQ: 1 IQ: 0, IPC: 0.8512
TH2 ROB: 105 LSQ: 87 IQ: 96, IPC: 1.3388
TH3 ROB: 4 LSQ: 2 IQ: 0, IPC: 0.0037
EPOCH ENDS
EPOCH STARTS
TH0 ROB: 4 LSQ: 0 IQ: 0 IPC: 0.0041
TH1 ROB: 4 LSQ: 1 IQ: 0, IPC: 0.8474
TH2 ROB: 106 LSQ: 87 IQ: 96, IPC: 1.3427
TH3 ROB: 4 LSQ: 2 IQ: 0, IPC: 0.0037
EPOCH ENDS
EPOCH STARTS
TH0 ROB: 4 LSQ: 0 IQ: 0 IPC: 0.0040
TH1 ROB: 4 LSQ: 1 IQ: 0, IPC: 0.8436
TH2 ROB: 106 LSQ: 87 IQ: 96, IPC: 1.3465
TH3 ROB: 4 LSQ: 2 IQ: 0, IPC: 0.0037
EPOCH ENDS
EPOCH STARTS
TH0 ROB: 4 LSQ: 0 IQ: 0 IPC: 0.0040
TH1 ROB: 4 LSQ: 1 IQ: 0, IPC: 0.8398
TH2 ROB: 106 LSQ: 87 IQ: 96, IPC: 1.3503
TH3 ROB: 4 LSQ: 2 IQ: 0, IPC: 0.0037
EPOCH ENDS
EPOCH STARTS
TH0 ROB: 4 LSQ: 0 IQ: 0 IPC: 0.0040
TH1 ROB: 4 LSQ: 1 IQ: 0, IPC: 0.8361
TH2 ROB: 104 LSQ: 86 IQ: 96, IPC: 1.3541
TH3 ROB: 4 LSQ: 2 IQ: 0, IPC: 0.0036
EPOCH ENDS
EPOCH STARTS
TH0 ROB: 4 LSQ: 0 IQ: 0 IPC: 0.0040
TH1 ROB: 4 LSQ: 1 IQ: 0, IPC: 0.8324
TH2 ROB: 104 LSQ: 87 IQ: 96, IPC: 1.3578
TH3 ROB: 4 LSQ: 2 IQ: 0, IPC: 0.0036
EPOCH ENDS
EPOCH STARTS
TH0 ROB: 4 LSQ: 0 IQ: 0 IPC: 0.0040
TH1 ROB: 4 LSQ: 1 IQ: 0, IPC: 0.8287
TH2 ROB: 105 LSQ: 86 IQ: 96, IPC: 1.3615
TH3 ROB: 4 LSQ: 2 IQ: 0, IPC: 0.0036
EPOCH ENDS
EPOCH STARTS
TH0 ROB: 4 LSQ: 0 IQ: 0 IPC: 0.0039
TH1 ROB: 4 LSQ: 1 IQ: 0, IPC: 0.8251
TH2 ROB: 105 LSQ: 86 IQ: 96, IPC: 1.3652
TH3 ROB: 4 LSQ: 2 IQ: 0, IPC: 0.0036
EPOCH ENDS
EPOCH STARTS
TH0 ROB: 4 LSQ: 0 IQ: 0 IPC: 0.0039
TH1 ROB: 4 LSQ: 1 IQ: 0, IPC: 0.8215
TH2 ROB: 106 LSQ: 87 IQ: 96, IPC: 1.3688
TH3 ROB: 4 LSQ: 2 IQ: 0, IPC: 0.0036
EPOCH ENDS
EPOCH STARTS
TH0 ROB: 4 LSQ: 0 IQ: 0 IPC: 0.0039
TH1 ROB: 4 LSQ: 1 IQ: 0, IPC: 0.8179
TH2 ROB: 105 LSQ: 87 IQ: 96, IPC: 1.3724
TH3 ROB: 4 LSQ: 2 IQ: 0, IPC: 0.0036
EPOCH ENDS
EPOCH STARTS
TH0 ROB: 4 LSQ: 0 IQ: 0 IPC: 0.0039
TH1 ROB: 4 LSQ: 1 IQ: 0, IPC: 0.8144
TH2 ROB: 105 LSQ: 86 IQ: 96, IPC: 1.3759
TH3 ROB: 4 LSQ: 2 IQ: 0, IPC: 0.0035
EPOCH ENDS
EPOCH STARTS
TH0 ROB: 4 LSQ: 0 IQ: 0 IPC: 0.0039
TH1 ROB: 4 LSQ: 1 IQ: 0, IPC: 0.8109
TH2 ROB: 105 LSQ: 86 IQ: 96, IPC: 1.3795
TH3 ROB: 4 LSQ: 2 IQ: 0, IPC: 0.0035
EPOCH ENDS
EPOCH STARTS
TH0 ROB: 4 LSQ: 0 IQ: 0 IPC: 0.0039
TH1 ROB: 4 LSQ: 1 IQ: 0, IPC: 0.8074
TH2 ROB: 105 LSQ: 86 IQ: 96, IPC: 1.3830
TH3 ROB: 4 LSQ: 2 IQ: 0, IPC: 0.0035
EPOCH ENDS
EPOCH STARTS
TH0 ROB: 4 LSQ: 0 IQ: 0 IPC: 0.0038
TH1 ROB: 4 LSQ: 1 IQ: 0, IPC: 0.8040
TH2 ROB: 105 LSQ: 86 IQ: 96, IPC: 1.3865
TH3 ROB: 4 LSQ: 2 IQ: 0, IPC: 0.0035
EPOCH ENDS
EPOCH STARTS
TH0 ROB: 4 LSQ: 0 IQ: 0 IPC: 0.0038
TH1 ROB: 4 LSQ: 1 IQ: 0, IPC: 0.8005
TH2 ROB: 105 LSQ: 87 IQ: 96, IPC: 1.3899
TH3 ROB: 4 LSQ: 2 IQ: 0, IPC: 0.0035
EPOCH ENDS
EPOCH STARTS
TH0 ROB: 4 LSQ: 0 IQ: 0 IPC: 0.0038
TH1 ROB: 4 LSQ: 1 IQ: 0, IPC: 0.7971
TH2 ROB: 105 LSQ: 86 IQ: 96, IPC: 1.3933
TH3 ROB: 4 LSQ: 2 IQ: 0, IPC: 0.0035
EPOCH ENDS
EPOCH STARTS
TH0 ROB: 4 LSQ: 0 IQ: 0 IPC: 0.0038
TH1 ROB: 4 LSQ: 1 IQ: 0, IPC: 0.7938
TH2 ROB: 105 LSQ: 86 IQ: 96, IPC: 1.3967
TH3 ROB: 4 LSQ: 2 IQ: 0, IPC: 0.0035
EPOCH ENDS
EPOCH STARTS
TH0 ROB: 4 LSQ: 0 IQ: 0 IPC: 0.0038
TH1 ROB: 4 LSQ: 1 IQ: 0, IPC: 0.7904
TH2 ROB: 105 LSQ: 86 IQ: 96, IPC: 1.4001
TH3 ROB: 4 LSQ: 2 IQ: 0, IPC: 0.0034
EPOCH ENDS
EPOCH STARTS
TH0 ROB: 4 LSQ: 0 IQ: 0 IPC: 0.0038
TH1 ROB: 4 LSQ: 1 IQ: 0, IPC: 0.7871
TH2 ROB: 105 LSQ: 87 IQ: 96, IPC: 1.4034
TH3 ROB: 4 LSQ: 2 IQ: 0, IPC: 0.0034
EPOCH ENDS
EPOCH STARTS
TH0 ROB: 4 LSQ: 0 IQ: 0 IPC: 0.0037
TH1 ROB: 4 LSQ: 1 IQ: 0, IPC: 0.7839
TH2 ROB: 105 LSQ: 88 IQ: 96, IPC: 1.4067
TH3 ROB: 4 LSQ: 2 IQ: 0, IPC: 0.0034
EPOCH ENDS
EPOCH STARTS
TH0 ROB: 4 LSQ: 0 IQ: 0 IPC: 0.0037
TH1 ROB: 4 LSQ: 1 IQ: 0, IPC: 0.7806
TH2 ROB: 104 LSQ: 85 IQ: 96, IPC: 1.4100
TH3 ROB: 4 LSQ: 2 IQ: 0, IPC: 0.0034
EPOCH ENDS
EPOCH STARTS
TH0 ROB: 4 LSQ: 0 IQ: 0 IPC: 0.0037
TH1 ROB: 4 LSQ: 1 IQ: 0, IPC: 0.7774
TH2 ROB: 104 LSQ: 85 IQ: 96, IPC: 1.4132
TH3 ROB: 4 LSQ: 2 IQ: 0, IPC: 0.0034
EPOCH ENDS
EPOCH STARTS
TH0 ROB: 4 LSQ: 0 IQ: 0 IPC: 0.0037
TH1 ROB: 4 LSQ: 1 IQ: 0, IPC: 0.7742
TH2 ROB: 105 LSQ: 86 IQ: 96, IPC: 1.4164
TH3 ROB: 4 LSQ: 2 IQ: 0, IPC: 0.0034
EPOCH ENDS
EPOCH STARTS
TH0 ROB: 4 LSQ: 0 IQ: 0 IPC: 0.0037
TH1 ROB: 4 LSQ: 1 IQ: 0, IPC: 0.7710
TH2 ROB: 105 LSQ: 87 IQ: 96, IPC: 1.4196
TH3 ROB: 4 LSQ: 2 IQ: 0, IPC: 0.0034
EPOCH ENDS
EPOCH STARTS
TH0 ROB: 4 LSQ: 0 IQ: 0 IPC: 0.0037
TH1 ROB: 4 LSQ: 1 IQ: 0, IPC: 0.7679
TH2 ROB: 106 LSQ: 87 IQ: 96, IPC: 1.4228
TH3 ROB: 4 LSQ: 2 IQ: 0, IPC: 0.0033
EPOCH ENDS
EPOCH STARTS
TH0 ROB: 4 LSQ: 0 IQ: 0 IPC: 0.0037
TH1 ROB: 4 LSQ: 1 IQ: 0, IPC: 0.7647
TH2 ROB: 104 LSQ: 85 IQ: 96, IPC: 1.4260
TH3 ROB: 4 LSQ: 2 IQ: 0, IPC: 0.0033
EPOCH ENDS
EPOCH STARTS
TH0 ROB: 4 LSQ: 0 IQ: 0 IPC: 0.0036
TH1 ROB: 4 LSQ: 1 IQ: 0, IPC: 0.7616
TH2 ROB: 104 LSQ: 85 IQ: 96, IPC: 1.4291
TH3 ROB: 4 LSQ: 2 IQ: 0, IPC: 0.0033
EPOCH ENDS
EPOCH STARTS
TH0 ROB: 4 LSQ: 0 IQ: 0 IPC: 0.0036
TH1 ROB: 4 LSQ: 1 IQ: 0, IPC: 0.7586
TH2 ROB: 104 LSQ: 85 IQ: 96, IPC: 1.4322
TH3 ROB: 4 LSQ: 2 IQ: 0, IPC: 0.0033
EPOCH ENDS
EPOCH STARTS
TH0 ROB: 4 LSQ: 0 IQ: 0 IPC: 0.0036
TH1 ROB: 4 LSQ: 1 IQ: 0, IPC: 0.7555
TH2 ROB: 105 LSQ: 87 IQ: 96, IPC: 1.4352
TH3 ROB: 4 LSQ: 2 IQ: 0, IPC: 0.0033
EPOCH ENDS
EPOCH STARTS
TH0 ROB: 4 LSQ: 0 IQ: 0 IPC: 0.0036
TH1 ROB: 4 LSQ: 1 IQ: 0, IPC: 0.7525
TH2 ROB: 105 LSQ: 86 IQ: 96, IPC: 1.4383
TH3 ROB: 4 LSQ: 2 IQ: 0, IPC: 0.0033
EPOCH ENDS
EPOCH STARTS
TH0 ROB: 4 LSQ: 0 IQ: 0 IPC: 0.0036
TH1 ROB: 4 LSQ: 1 IQ: 0, IPC: 0.7495
TH2 ROB: 104 LSQ: 85 IQ: 96, IPC: 1.4413
TH3 ROB: 4 LSQ: 2 IQ: 0, IPC: 0.0033
EPOCH ENDS
EPOCH STARTS
TH0 ROB: 4 LSQ: 0 IQ: 0 IPC: 0.0036
TH1 ROB: 4 LSQ: 1 IQ: 0, IPC: 0.7465
TH2 ROB: 104 LSQ: 85 IQ: 96, IPC: 1.4443
TH3 ROB: 4 LSQ: 2 IQ: 0, IPC: 0.0033
EPOCH ENDS
EPOCH STARTS
TH0 ROB: 4 LSQ: 0 IQ: 0 IPC: 0.0036
TH1 ROB: 4 LSQ: 1 IQ: 0, IPC: 0.7436
TH2 ROB: 104 LSQ: 87 IQ: 96, IPC: 1.4473
TH3 ROB: 4 LSQ: 2 IQ: 0, IPC: 0.0032
EPOCH ENDS
EPOCH STARTS
TH0 ROB: 4 LSQ: 0 IQ: 0 IPC: 0.0035
TH1 ROB: 4 LSQ: 1 IQ: 0, IPC: 0.7406
TH2 ROB: 105 LSQ: 87 IQ: 96, IPC: 1.4502
TH3 ROB: 4 LSQ: 2 IQ: 0, IPC: 0.0032
EPOCH ENDS
EPOCH STARTS
TH0 ROB: 4 LSQ: 0 IQ: 0 IPC: 0.0035
TH1 ROB: 4 LSQ: 1 IQ: 0, IPC: 0.7377
TH2 ROB: 105 LSQ: 85 IQ: 96, IPC: 1.4531
TH3 ROB: 4 LSQ: 2 IQ: 0, IPC: 0.0032
EPOCH ENDS
EPOCH STARTS
TH0 ROB: 4 LSQ: 0 IQ: 0 IPC: 0.0035
TH1 ROB: 4 LSQ: 1 IQ: 0, IPC: 0.7349
TH2 ROB: 104 LSQ: 85 IQ: 96, IPC: 1.4560
TH3 ROB: 4 LSQ: 2 IQ: 0, IPC: 0.0032
EPOCH ENDS
EPOCH STARTS
TH0 ROB: 4 LSQ: 0 IQ: 0 IPC: 0.0035
TH1 ROB: 4 LSQ: 1 IQ: 0, IPC: 0.7320
TH2 ROB: 104 LSQ: 85 IQ: 96, IPC: 1.4589
TH3 ROB: 4 LSQ: 2 IQ: 0, IPC: 0.0032
EPOCH ENDS
EPOCH STARTS
TH0 ROB: 4 LSQ: 0 IQ: 0 IPC: 0.0035
TH1 ROB: 4 LSQ: 1 IQ: 0, IPC: 0.7292
TH2 ROB: 104 LSQ: 86 IQ: 96, IPC: 1.4618
TH3 ROB: 4 LSQ: 2 IQ: 0, IPC: 0.0032
EPOCH ENDS
EPOCH STARTS
TH0 ROB: 4 LSQ: 0 IQ: 0 IPC: 0.0035
TH1 ROB: 4 LSQ: 1 IQ: 0, IPC: 0.7264
TH2 ROB: 107 LSQ: 88 IQ: 96, IPC: 1.4646
TH3 ROB: 4 LSQ: 2 IQ: 0, IPC: 0.0032
EPOCH ENDS
EPOCH STARTS
TH0 ROB: 4 LSQ: 0 IQ: 0 IPC: 0.0035
TH1 ROB: 4 LSQ: 1 IQ: 0, IPC: 0.7236
TH2 ROB: 105 LSQ: 86 IQ: 96, IPC: 1.4674
TH3 ROB: 4 LSQ: 2 IQ: 0, IPC: 0.0032
EPOCH ENDS
EPOCH STARTS
TH0 ROB: 4 LSQ: 0 IQ: 0 IPC: 0.0034
TH1 ROB: 4 LSQ: 1 IQ: 0, IPC: 0.7208
TH2 ROB: 105 LSQ: 85 IQ: 96, IPC: 1.4702
TH3 ROB: 4 LSQ: 2 IQ: 0, IPC: 0.0031
EPOCH ENDS
EPOCH STARTS
TH0 ROB: 4 LSQ: 0 IQ: 0 IPC: 0.0034
TH1 ROB: 4 LSQ: 1 IQ: 0, IPC: 0.7180
TH2 ROB: 104 LSQ: 85 IQ: 96, IPC: 1.4730
TH3 ROB: 4 LSQ: 2 IQ: 0, IPC: 0.0031
EPOCH ENDS
EPOCH STARTS
TH0 ROB: 4 LSQ: 0 IQ: 0 IPC: 0.0034
TH1 ROB: 4 LSQ: 1 IQ: 0, IPC: 0.7153
TH2 ROB: 105 LSQ: 87 IQ: 96, IPC: 1.4757
TH3 ROB: 4 LSQ: 2 IQ: 0, IPC: 0.0031
EPOCH ENDS
EPOCH STARTS
TH0 ROB: 4 LSQ: 0 IQ: 0 IPC: 0.0034
TH1 ROB: 4 LSQ: 1 IQ: 0, IPC: 0.7126
TH2 ROB: 105 LSQ: 86 IQ: 96, IPC: 1.4785
TH3 ROB: 4 LSQ: 2 IQ: 0, IPC: 0.0031
EPOCH ENDS
EPOCH STARTS
TH0 ROB: 4 LSQ: 0 IQ: 0 IPC: 0.0034
TH1 ROB: 4 LSQ: 1 IQ: 0, IPC: 0.7099
TH2 ROB: 104 LSQ: 85 IQ: 96, IPC: 1.4812
TH3 ROB: 4 LSQ: 2 IQ: 0, IPC: 0.0031
EPOCH ENDS
EPOCH STARTS
TH0 ROB: 4 LSQ: 0 IQ: 0 IPC: 0.0034
TH1 ROB: 4 LSQ: 1 IQ: 0, IPC: 0.7072
TH2 ROB: 105 LSQ: 86 IQ: 96, IPC: 1.4839
TH3 ROB: 4 LSQ: 2 IQ: 0, IPC: 0.0031
EPOCH ENDS
EPOCH STARTS
TH0 ROB: 4 LSQ: 0 IQ: 0 IPC: 0.0034
TH1 ROB: 4 LSQ: 1 IQ: 0, IPC: 0.7046
TH2 ROB: 105 LSQ: 87 IQ: 96, IPC: 1.4865
TH3 ROB: 4 LSQ: 2 IQ: 0, IPC: 0.0031
EPOCH ENDS
EPOCH STARTS
TH0 ROB: 4 LSQ: 0 IQ: 0 IPC: 0.0034
TH1 ROB: 4 LSQ: 1 IQ: 0, IPC: 0.7020
TH2 ROB: 105 LSQ: 87 IQ: 96, IPC: 1.4892
TH3 ROB: 4 LSQ: 2 IQ: 0, IPC: 0.0031
EPOCH ENDS
EPOCH STARTS
TH0 ROB: 4 LSQ: 0 IQ: 0 IPC: 0.0033
TH1 ROB: 4 LSQ: 1 IQ: 0, IPC: 0.6993
TH2 ROB: 106 LSQ: 87 IQ: 96, IPC: 1.4918
TH3 ROB: 4 LSQ: 2 IQ: 0, IPC: 0.0030
EPOCH ENDS
EPOCH STARTS
TH0 ROB: 4 LSQ: 0 IQ: 0 IPC: 0.0033
TH1 ROB: 4 LSQ: 1 IQ: 0, IPC: 0.6968
TH2 ROB: 104 LSQ: 85 IQ: 96, IPC: 1.4944
TH3 ROB: 4 LSQ: 2 IQ: 0, IPC: 0.0030
EPOCH ENDS
EPOCH STARTS
TH0 ROB: 4 LSQ: 0 IQ: 0 IPC: 0.0033
TH1 ROB: 4 LSQ: 1 IQ: 0, IPC: 0.6942
TH2 ROB: 104 LSQ: 85 IQ: 96, IPC: 1.4970
TH3 ROB: 4 LSQ: 2 IQ: 0, IPC: 0.0030
EPOCH ENDS
EPOCH STARTS
TH0 ROB: 4 LSQ: 0 IQ: 0 IPC: 0.0033
TH1 ROB: 4 LSQ: 1 IQ: 0, IPC: 0.6916
TH2 ROB: 105 LSQ: 87 IQ: 96, IPC: 1.4996
TH3 ROB: 4 LSQ: 2 IQ: 0, IPC: 0.0030
EPOCH ENDS
EPOCH STARTS
TH0 ROB: 4 LSQ: 0 IQ: 0 IPC: 0.0033
TH1 ROB: 4 LSQ: 1 IQ: 0, IPC: 0.6891
TH2 ROB: 106 LSQ: 87 IQ: 96, IPC: 1.5021
TH3 ROB: 4 LSQ: 2 IQ: 0, IPC: 0.0030
EPOCH ENDS
EPOCH STARTS
TH0 ROB: 4 LSQ: 0 IQ: 0 IPC: 0.0033
TH1 ROB: 4 LSQ: 1 IQ: 0, IPC: 0.6866
TH2 ROB: 106 LSQ: 87 IQ: 96, IPC: 1.5047
TH3 ROB: 4 LSQ: 2 IQ: 0, IPC: 0.0030
EPOCH ENDS
EPOCH STARTS
TH0 ROB: 4 LSQ: 0 IQ: 0 IPC: 0.0033
TH1 ROB: 4 LSQ: 1 IQ: 0, IPC: 0.6841
TH2 ROB: 106 LSQ: 87 IQ: 96, IPC: 1.5072
TH3 ROB: 4 LSQ: 2 IQ: 0, IPC: 0.0030
EPOCH ENDS
EPOCH STARTS
TH0 ROB: 4 LSQ: 0 IQ: 0 IPC: 0.0033
TH1 ROB: 4 LSQ: 1 IQ: 0, IPC: 0.6816
TH2 ROB: 104 LSQ: 86 IQ: 96, IPC: 1.5097
TH3 ROB: 4 LSQ: 2 IQ: 0, IPC: 0.0030
EPOCH ENDS
EPOCH STARTS
TH0 ROB: 4 LSQ: 0 IQ: 0 IPC: 0.0032
TH1 ROB: 4 LSQ: 1 IQ: 0, IPC: 0.6792
TH2 ROB: 104 LSQ: 87 IQ: 96, IPC: 1.5121
TH3 ROB: 4 LSQ: 2 IQ: 0, IPC: 0.0030
EPOCH ENDS
EPOCH STARTS
TH0 ROB: 4 LSQ: 0 IQ: 0 IPC: 0.0032
TH1 ROB: 4 LSQ: 1 IQ: 0, IPC: 0.6767
TH2 ROB: 105 LSQ: 86 IQ: 96, IPC: 1.5146
TH3 ROB: 4 LSQ: 2 IQ: 0, IPC: 0.0029
EPOCH ENDS
EPOCH STARTS
TH0 ROB: 4 LSQ: 0 IQ: 0 IPC: 0.0032
TH1 ROB: 4 LSQ: 1 IQ: 0, IPC: 0.6743
TH2 ROB: 105 LSQ: 86 IQ: 96, IPC: 1.5170
TH3 ROB: 4 LSQ: 2 IQ: 0, IPC: 0.0029
EPOCH ENDS
EPOCH STARTS
TH0 ROB: 4 LSQ: 0 IQ: 0 IPC: 0.0032
TH1 ROB: 4 LSQ: 1 IQ: 0, IPC: 0.6719
TH2 ROB: 106 LSQ: 87 IQ: 96, IPC: 1.5195
TH3 ROB: 4 LSQ: 2 IQ: 0, IPC: 0.0029
EPOCH ENDS
EPOCH STARTS
TH0 ROB: 4 LSQ: 0 IQ: 0 IPC: 0.0032
TH1 ROB: 4 LSQ: 1 IQ: 0, IPC: 0.6695
TH2 ROB: 105 LSQ: 87 IQ: 96, IPC: 1.5219
TH3 ROB: 4 LSQ: 2 IQ: 0, IPC: 0.0029
EPOCH ENDS
EPOCH STARTS
TH0 ROB: 4 LSQ: 0 IQ: 0 IPC: 0.0032
TH1 ROB: 4 LSQ: 1 IQ: 0, IPC: 0.6671
TH2 ROB: 105 LSQ: 86 IQ: 96, IPC: 1.5243
TH3 ROB: 4 LSQ: 2 IQ: 0, IPC: 0.0029
EPOCH ENDS
EPOCH STARTS
TH0 ROB: 4 LSQ: 0 IQ: 0 IPC: 0.0032
TH1 ROB: 4 LSQ: 1 IQ: 0, IPC: 0.6648
TH2 ROB: 105 LSQ: 86 IQ: 96, IPC: 1.5266
TH3 ROB: 4 LSQ: 2 IQ: 0, IPC: 0.0029
EPOCH ENDS
EPOCH STARTS
TH0 ROB: 4 LSQ: 0 IQ: 0 IPC: 0.0032
TH1 ROB: 4 LSQ: 1 IQ: 0, IPC: 0.6624
TH2 ROB: 105 LSQ: 86 IQ: 96, IPC: 1.5290
TH3 ROB: 4 LSQ: 2 IQ: 0, IPC: 0.0029
EPOCH ENDS
EPOCH STARTS
TH0 ROB: 4 LSQ: 0 IQ: 0 IPC: 0.0032
TH1 ROB: 4 LSQ: 1 IQ: 0, IPC: 0.6601
TH2 ROB: 105 LSQ: 86 IQ: 96, IPC: 1.5313
TH3 ROB: 4 LSQ: 2 IQ: 0, IPC: 0.0029
EPOCH ENDS
EPOCH STARTS
TH0 ROB: 4 LSQ: 0 IQ: 0 IPC: 0.0031
TH1 ROB: 4 LSQ: 1 IQ: 0, IPC: 0.6578
TH2 ROB: 105 LSQ: 87 IQ: 96, IPC: 1.5337
TH3 ROB: 4 LSQ: 2 IQ: 0, IPC: 0.0029
EPOCH ENDS
EPOCH STARTS
TH0 ROB: 4 LSQ: 0 IQ: 0 IPC: 0.0031
TH1 ROB: 4 LSQ: 1 IQ: 0, IPC: 0.6555
TH2 ROB: 105 LSQ: 86 IQ: 96, IPC: 1.5360
TH3 ROB: 4 LSQ: 2 IQ: 0, IPC: 0.0029
EPOCH ENDS
EPOCH STARTS
TH0 ROB: 4 LSQ: 0 IQ: 0 IPC: 0.0031
TH1 ROB: 4 LSQ: 1 IQ: 0, IPC: 0.6532
TH2 ROB: 105 LSQ: 86 IQ: 96, IPC: 1.5383
TH3 ROB: 4 LSQ: 2 IQ: 0, IPC: 0.0028
EPOCH ENDS
EPOCH STARTS
TH0 ROB: 4 LSQ: 0 IQ: 0 IPC: 0.0031
TH1 ROB: 4 LSQ: 1 IQ: 0, IPC: 0.6510
TH2 ROB: 105 LSQ: 86 IQ: 96, IPC: 1.5405
TH3 ROB: 4 LSQ: 2 IQ: 0, IPC: 0.0028
EPOCH ENDS
EPOCH STARTS
TH0 ROB: 4 LSQ: 0 IQ: 0 IPC: 0.0031
TH1 ROB: 4 LSQ: 1 IQ: 0, IPC: 0.6487
TH2 ROB: 105 LSQ: 87 IQ: 96, IPC: 1.5428
TH3 ROB: 4 LSQ: 2 IQ: 0, IPC: 0.0028
EPOCH ENDS
EPOCH STARTS
TH0 ROB: 4 LSQ: 0 IQ: 0 IPC: 0.0031
TH1 ROB: 4 LSQ: 1 IQ: 0, IPC: 0.6465
TH2 ROB: 105 LSQ: 88 IQ: 96, IPC: 1.5450
TH3 ROB: 4 LSQ: 2 IQ: 0, IPC: 0.0028
EPOCH ENDS
EPOCH STARTS
TH0 ROB: 4 LSQ: 0 IQ: 0 IPC: 0.0031
TH1 ROB: 4 LSQ: 1 IQ: 0, IPC: 0.6443
TH2 ROB: 104 LSQ: 85 IQ: 96, IPC: 1.5473
TH3 ROB: 4 LSQ: 2 IQ: 0, IPC: 0.0028
EPOCH ENDS
EPOCH STARTS
TH0 ROB: 4 LSQ: 0 IQ: 0 IPC: 0.0031
TH1 ROB: 4 LSQ: 1 IQ: 0, IPC: 0.6421
TH2 ROB: 104 LSQ: 85 IQ: 96, IPC: 1.5495
TH3 ROB: 4 LSQ: 2 IQ: 0, IPC: 0.0028
EPOCH ENDS
EPOCH STARTS
TH0 ROB: 4 LSQ: 0 IQ: 0 IPC: 0.0031
TH1 ROB: 4 LSQ: 1 IQ: 0, IPC: 0.6399
TH2 ROB: 105 LSQ: 86 IQ: 96, IPC: 1.5517
TH3 ROB: 4 LSQ: 2 IQ: 0, IPC: 0.0028
EPOCH ENDS
EPOCH STARTS
TH0 ROB: 4 LSQ: 0 IQ: 0 IPC: 0.0030
TH1 ROB: 4 LSQ: 1 IQ: 0, IPC: 0.6377
TH2 ROB: 105 LSQ: 87 IQ: 96, IPC: 1.5539
TH3 ROB: 4 LSQ: 2 IQ: 0, IPC: 0.0028
EPOCH ENDS
EPOCH STARTS
TH0 ROB: 4 LSQ: 0 IQ: 0 IPC: 0.0030
TH1 ROB: 4 LSQ: 1 IQ: 0, IPC: 0.6356
TH2 ROB: 106 LSQ: 87 IQ: 96, IPC: 1.5560
TH3 ROB: 4 LSQ: 2 IQ: 0, IPC: 0.0028
EPOCH ENDS
EPOCH STARTS
TH0 ROB: 4 LSQ: 0 IQ: 0 IPC: 0.0030
TH1 ROB: 4 LSQ: 1 IQ: 0, IPC: 0.6334
TH2 ROB: 104 LSQ: 85 IQ: 96, IPC: 1.5582
TH3 ROB: 4 LSQ: 2 IQ: 0, IPC: 0.0028
EPOCH ENDS
EPOCH STARTS
TH0 ROB: 4 LSQ: 0 IQ: 0 IPC: 0.0030
TH1 ROB: 4 LSQ: 1 IQ: 0, IPC: 0.6313
TH2 ROB: 104 LSQ: 85 IQ: 96, IPC: 1.5603
TH3 ROB: 4 LSQ: 2 IQ: 0, IPC: 0.0028
EPOCH ENDS
EPOCH STARTS
TH0 ROB: 4 LSQ: 0 IQ: 0 IPC: 0.0030
TH1 ROB: 4 LSQ: 1 IQ: 0, IPC: 0.6292
TH2 ROB: 104 LSQ: 85 IQ: 96, IPC: 1.5625
TH3 ROB: 4 LSQ: 2 IQ: 0, IPC: 0.0027
EPOCH ENDS
EPOCH STARTS
TH0 ROB: 4 LSQ: 0 IQ: 0 IPC: 0.0030
TH1 ROB: 4 LSQ: 1 IQ: 0, IPC: 0.6271
TH2 ROB: 105 LSQ: 87 IQ: 96, IPC: 1.5646
TH3 ROB: 4 LSQ: 2 IQ: 0, IPC: 0.0027
EPOCH ENDS
EPOCH STARTS
TH0 ROB: 4 LSQ: 0 IQ: 0 IPC: 0.0030
TH1 ROB: 4 LSQ: 1 IQ: 0, IPC: 0.6250
TH2 ROB: 105 LSQ: 86 IQ: 96, IPC: 1.5667
TH3 ROB: 4 LSQ: 2 IQ: 0, IPC: 0.0027
EPOCH ENDS
EPOCH STARTS
TH0 ROB: 4 LSQ: 0 IQ: 0 IPC: 0.0030
TH1 ROB: 4 LSQ: 1 IQ: 0, IPC: 0.6229
TH2 ROB: 104 LSQ: 85 IQ: 96, IPC: 1.5688
TH3 ROB: 4 LSQ: 2 IQ: 0, IPC: 0.0027
EPOCH ENDS
EPOCH STARTS
TH0 ROB: 4 LSQ: 0 IQ: 0 IPC: 0.0030
TH1 ROB: 4 LSQ: 1 IQ: 0, IPC: 0.6209
TH2 ROB: 104 LSQ: 85 IQ: 96, IPC: 1.5708
TH3 ROB: 4 LSQ: 2 IQ: 0, IPC: 0.0027
EPOCH ENDS
EPOCH STARTS
TH0 ROB: 4 LSQ: 0 IQ: 0 IPC: 0.0030
TH1 ROB: 4 LSQ: 1 IQ: 0, IPC: 0.6188
TH2 ROB: 104 LSQ: 87 IQ: 96, IPC: 1.5729
TH3 ROB: 4 LSQ: 2 IQ: 0, IPC: 0.0027
EPOCH ENDS
EPOCH STARTS
TH0 ROB: 4 LSQ: 0 IQ: 0 IPC: 0.0029
TH1 ROB: 4 LSQ: 1 IQ: 0, IPC: 0.6168
TH2 ROB: 105 LSQ: 87 IQ: 96, IPC: 1.5749
TH3 ROB: 4 LSQ: 2 IQ: 0, IPC: 0.0027
EPOCH ENDS
EPOCH STARTS
TH0 ROB: 4 LSQ: 0 IQ: 0 IPC: 0.0029
TH1 ROB: 4 LSQ: 1 IQ: 0, IPC: 0.6148
TH2 ROB: 105 LSQ: 85 IQ: 96, IPC: 1.5770
TH3 ROB: 4 LSQ: 2 IQ: 0, IPC: 0.0027
EPOCH ENDS
EPOCH STARTS
TH0 ROB: 4 LSQ: 0 IQ: 0 IPC: 0.0029
TH1 ROB: 4 LSQ: 1 IQ: 0, IPC: 0.6128
TH2 ROB: 104 LSQ: 85 IQ: 96, IPC: 1.5790
TH3 ROB: 4 LSQ: 2 IQ: 0, IPC: 0.0027
EPOCH ENDS
EPOCH STARTS
TH0 ROB: 4 LSQ: 0 IQ: 0 IPC: 0.0029
TH1 ROB: 4 LSQ: 1 IQ: 0, IPC: 0.6108
TH2 ROB: 104 LSQ: 85 IQ: 96, IPC: 1.5810
TH3 ROB: 4 LSQ: 2 IQ: 0, IPC: 0.0027
EPOCH ENDS
EPOCH STARTS
TH0 ROB: 4 LSQ: 0 IQ: 0 IPC: 0.0029
TH1 ROB: 4 LSQ: 1 IQ: 0, IPC: 0.6088
TH2 ROB: 104 LSQ: 86 IQ: 96, IPC: 1.5830
TH3 ROB: 4 LSQ: 2 IQ: 0, IPC: 0.0027
EPOCH ENDS
EPOCH STARTS
TH0 ROB: 4 LSQ: 0 IQ: 0 IPC: 0.0029
TH1 ROB: 4 LSQ: 1 IQ: 0, IPC: 0.6069
TH2 ROB: 107 LSQ: 88 IQ: 96, IPC: 1.5849
TH3 ROB: 4 LSQ: 2 IQ: 0, IPC: 0.0026
EPOCH ENDS
EPOCH STARTS
TH0 ROB: 4 LSQ: 0 IQ: 0 IPC: 0.0029
TH1 ROB: 4 LSQ: 1 IQ: 0, IPC: 0.6049
TH2 ROB: 105 LSQ: 86 IQ: 96, IPC: 1.5869
TH3 ROB: 4 LSQ: 2 IQ: 0, IPC: 0.0026
EPOCH ENDS
EPOCH STARTS
TH0 ROB: 4 LSQ: 0 IQ: 0 IPC: 0.0029
TH1 ROB: 4 LSQ: 1 IQ: 0, IPC: 0.6030
TH2 ROB: 105 LSQ: 85 IQ: 96, IPC: 1.5889
TH3 ROB: 4 LSQ: 2 IQ: 0, IPC: 0.0026
EPOCH ENDS
EPOCH STARTS
TH0 ROB: 4 LSQ: 0 IQ: 0 IPC: 0.0029
TH1 ROB: 4 LSQ: 1 IQ: 0, IPC: 0.6010
TH2 ROB: 104 LSQ: 85 IQ: 96, IPC: 1.5908
TH3 ROB: 4 LSQ: 2 IQ: 0, IPC: 0.0026
EPOCH ENDS
EPOCH STARTS
TH0 ROB: 4 LSQ: 0 IQ: 0 IPC: 0.0029
TH1 ROB: 4 LSQ: 1 IQ: 0, IPC: 0.5991
TH2 ROB: 105 LSQ: 87 IQ: 96, IPC: 1.5927
TH3 ROB: 4 LSQ: 2 IQ: 0, IPC: 0.0026
EPOCH ENDS
EPOCH STARTS
TH0 ROB: 4 LSQ: 0 IQ: 0 IPC: 0.0029
TH1 ROB: 4 LSQ: 1 IQ: 0, IPC: 0.5972
TH2 ROB: 105 LSQ: 86 IQ: 96, IPC: 1.5946
TH3 ROB: 4 LSQ: 2 IQ: 0, IPC: 0.0026
EPOCH ENDS
EPOCH STARTS
TH0 ROB: 4 LSQ: 0 IQ: 0 IPC: 0.0028
TH1 ROB: 4 LSQ: 1 IQ: 0, IPC: 0.5953
TH2 ROB: 104 LSQ: 85 IQ: 96, IPC: 1.5966
TH3 ROB: 4 LSQ: 2 IQ: 0, IPC: 0.0026
EPOCH ENDS
EPOCH STARTS
TH0 ROB: 4 LSQ: 0 IQ: 0 IPC: 0.0028
TH1 ROB: 4 LSQ: 1 IQ: 0, IPC: 0.5935
TH2 ROB: 105 LSQ: 86 IQ: 96, IPC: 1.5984
TH3 ROB: 4 LSQ: 2 IQ: 0, IPC: 0.0026
EPOCH ENDS
EPOCH STARTS
TH0 ROB: 4 LSQ: 0 IQ: 0 IPC: 0.0028
TH1 ROB: 4 LSQ: 1 IQ: 0, IPC: 0.5916
TH2 ROB: 105 LSQ: 87 IQ: 96, IPC: 1.6003
TH3 ROB: 4 LSQ: 2 IQ: 0, IPC: 0.0026
EPOCH ENDS
EPOCH STARTS
TH0 ROB: 4 LSQ: 0 IQ: 0 IPC: 0.0028
TH1 ROB: 4 LSQ: 1 IQ: 0, IPC: 0.5897
TH2 ROB: 105 LSQ: 87 IQ: 96, IPC: 1.6022
TH3 ROB: 4 LSQ: 2 IQ: 0, IPC: 0.0026
EPOCH ENDS
EPOCH STARTS
TH0 ROB: 4 LSQ: 0 IQ: 0 IPC: 0.0028
TH1 ROB: 4 LSQ: 1 IQ: 0, IPC: 0.5879
TH2 ROB: 106 LSQ: 87 IQ: 96, IPC: 1.6040
TH3 ROB: 4 LSQ: 2 IQ: 0, IPC: 0.0026
EPOCH ENDS
EPOCH STARTS
TH0 ROB: 4 LSQ: 0 IQ: 0 IPC: 0.0028
TH1 ROB: 4 LSQ: 1 IQ: 0, IPC: 0.5861
TH2 ROB: 104 LSQ: 85 IQ: 96, IPC: 1.6059
TH3 ROB: 4 LSQ: 2 IQ: 0, IPC: 0.0026
EPOCH ENDS
EPOCH STARTS
TH0 ROB: 4 LSQ: 0 IQ: 0 IPC: 0.0028
TH1 ROB: 4 LSQ: 1 IQ: 0, IPC: 0.5842
TH2 ROB: 104 LSQ: 85 IQ: 96, IPC: 1.6077
TH3 ROB: 4 LSQ: 2 IQ: 0, IPC: 0.0025
EPOCH ENDS
EPOCH STARTS
TH0 ROB: 4 LSQ: 0 IQ: 0 IPC: 0.0028
TH1 ROB: 4 LSQ: 1 IQ: 0, IPC: 0.5824
TH2 ROB: 105 LSQ: 87 IQ: 96, IPC: 1.6095
TH3 ROB: 4 LSQ: 2 IQ: 0, IPC: 0.0025
EPOCH ENDS
EPOCH STARTS
TH0 ROB: 4 LSQ: 0 IQ: 0 IPC: 0.0028
TH1 ROB: 4 LSQ: 1 IQ: 0, IPC: 0.5806
TH2 ROB: 106 LSQ: 87 IQ: 96, IPC: 1.6114
TH3 ROB: 4 LSQ: 2 IQ: 0, IPC: 0.0025
EPOCH ENDS
EPOCH STARTS
TH0 ROB: 4 LSQ: 0 IQ: 0 IPC: 0.0028
TH1 ROB: 4 LSQ: 1 IQ: 0, IPC: 0.5788
TH2 ROB: 106 LSQ: 87 IQ: 96, IPC: 1.6132
TH3 ROB: 4 LSQ: 2 IQ: 0, IPC: 0.0025
EPOCH ENDS
EPOCH STARTS
TH0 ROB: 4 LSQ: 0 IQ: 0 IPC: 0.0028
TH1 ROB: 4 LSQ: 1 IQ: 0, IPC: 0.5771
TH2 ROB: 106 LSQ: 87 IQ: 96, IPC: 1.6149
TH3 ROB: 4 LSQ: 2 IQ: 0, IPC: 0.0025
EPOCH ENDS
EPOCH STARTS
TH0 ROB: 4 LSQ: 0 IQ: 0 IPC: 0.0028
TH1 ROB: 4 LSQ: 1 IQ: 0, IPC: 0.5753
TH2 ROB: 104 LSQ: 86 IQ: 96, IPC: 1.6167
TH3 ROB: 4 LSQ: 2 IQ: 0, IPC: 0.0025
EPOCH ENDS
EPOCH STARTS
TH0 ROB: 4 LSQ: 0 IQ: 0 IPC: 0.0027
TH1 ROB: 4 LSQ: 1 IQ: 0, IPC: 0.5736
TH2 ROB: 104 LSQ: 87 IQ: 96, IPC: 1.6185
TH3 ROB: 4 LSQ: 2 IQ: 0, IPC: 0.0025
EPOCH ENDS
EPOCH STARTS
TH0 ROB: 4 LSQ: 0 IQ: 0 IPC: 0.0027
TH1 ROB: 4 LSQ: 1 IQ: 0, IPC: 0.5718
TH2 ROB: 105 LSQ: 86 IQ: 96, IPC: 1.6202
TH3 ROB: 4 LSQ: 2 IQ: 0, IPC: 0.0025
EPOCH ENDS
EPOCH STARTS
TH0 ROB: 4 LSQ: 0 IQ: 0 IPC: 0.0027
TH1 ROB: 4 LSQ: 1 IQ: 0, IPC: 0.5701
TH2 ROB: 105 LSQ: 86 IQ: 96, IPC: 1.6220
TH3 ROB: 4 LSQ: 2 IQ: 0, IPC: 0.0025
EPOCH ENDS
EPOCH STARTS
TH0 ROB: 4 LSQ: 0 IQ: 0 IPC: 0.0027
TH1 ROB: 4 LSQ: 1 IQ: 0, IPC: 0.5684
TH2 ROB: 106 LSQ: 87 IQ: 96, IPC: 1.6237
TH3 ROB: 4 LSQ: 2 IQ: 0, IPC: 0.0025
EPOCH ENDS
EPOCH STARTS
TH0 ROB: 4 LSQ: 0 IQ: 0 IPC: 0.0027
TH1 ROB: 4 LSQ: 1 IQ: 0, IPC: 0.5666
TH2 ROB: 105 LSQ: 87 IQ: 96, IPC: 1.6254
TH3 ROB: 4 LSQ: 2 IQ: 0, IPC: 0.0025
EPOCH ENDS
EPOCH STARTS
TH0 ROB: 4 LSQ: 0 IQ: 0 IPC: 0.0027
TH1 ROB: 4 LSQ: 1 IQ: 0, IPC: 0.5649
TH2 ROB: 105 LSQ: 86 IQ: 96, IPC: 1.6272
TH3 ROB: 4 LSQ: 2 IQ: 0, IPC: 0.0025
EPOCH ENDS
EPOCH STARTS
TH0 ROB: 4 LSQ: 0 IQ: 0 IPC: 0.0027
TH1 ROB: 4 LSQ: 1 IQ: 0, IPC: 0.5632
TH2 ROB: 105 LSQ: 86 IQ: 96, IPC: 1.6289
TH3 ROB: 4 LSQ: 2 IQ: 0, IPC: 0.0025
EPOCH ENDS
EPOCH STARTS
TH0 ROB: 4 LSQ: 0 IQ: 0 IPC: 0.0027
TH1 ROB: 4 LSQ: 1 IQ: 0, IPC: 0.5616
TH2 ROB: 105 LSQ: 86 IQ: 96, IPC: 1.6306
TH3 ROB: 4 LSQ: 2 IQ: 0, IPC: 0.0024
EPOCH ENDS
EPOCH STARTS
TH0 ROB: 4 LSQ: 0 IQ: 0 IPC: 0.0027
TH1 ROB: 4 LSQ: 1 IQ: 0, IPC: 0.5599
TH2 ROB: 105 LSQ: 86 IQ: 96, IPC: 1.6322
TH3 ROB: 4 LSQ: 2 IQ: 0, IPC: 0.0024
EPOCH ENDS
EPOCH STARTS
TH0 ROB: 4 LSQ: 0 IQ: 0 IPC: 0.0027
TH1 ROB: 4 LSQ: 1 IQ: 0, IPC: 0.5582
TH2 ROB: 105 LSQ: 87 IQ: 96, IPC: 1.6339
TH3 ROB: 4 LSQ: 2 IQ: 0, IPC: 0.0024
EPOCH ENDS
EPOCH STARTS
TH0 ROB: 4 LSQ: 0 IQ: 0 IPC: 0.0027
TH1 ROB: 4 LSQ: 1 IQ: 0, IPC: 0.5566
TH2 ROB: 105 LSQ: 86 IQ: 96, IPC: 1.6356
TH3 ROB: 4 LSQ: 2 IQ: 0, IPC: 0.0024
EPOCH ENDS
EPOCH STARTS
TH0 ROB: 4 LSQ: 0 IQ: 0 IPC: 0.0027
TH1 ROB: 4 LSQ: 1 IQ: 0, IPC: 0.5549
TH2 ROB: 105 LSQ: 86 IQ: 96, IPC: 1.6372
TH3 ROB: 4 LSQ: 2 IQ: 0, IPC: 0.0024
EPOCH ENDS
EPOCH STARTS
TH0 ROB: 4 LSQ: 0 IQ: 0 IPC: 0.0026
TH1 ROB: 4 LSQ: 1 IQ: 0, IPC: 0.5533
TH2 ROB: 105 LSQ: 86 IQ: 96, IPC: 1.6389
TH3 ROB: 4 LSQ: 2 IQ: 0, IPC: 0.0024
EPOCH ENDS
EPOCH STARTS
TH0 ROB: 4 LSQ: 0 IQ: 0 IPC: 0.0026
TH1 ROB: 4 LSQ: 1 IQ: 0, IPC: 0.5517
TH2 ROB: 105 LSQ: 87 IQ: 96, IPC: 1.6405
TH3 ROB: 4 LSQ: 2 IQ: 0, IPC: 0.0024
EPOCH ENDS
EPOCH STARTS
TH0 ROB: 4 LSQ: 0 IQ: 0 IPC: 0.0026
TH1 ROB: 4 LSQ: 1 IQ: 0, IPC: 0.5501
TH2 ROB: 105 LSQ: 88 IQ: 96, IPC: 1.6421
TH3 ROB: 4 LSQ: 2 IQ: 0, IPC: 0.0024
EPOCH ENDS
EPOCH STARTS
TH0 ROB: 4 LSQ: 0 IQ: 0 IPC: 0.0026
TH1 ROB: 4 LSQ: 1 IQ: 0, IPC: 0.5485
TH2 ROB: 104 LSQ: 85 IQ: 96, IPC: 1.6437
TH3 ROB: 4 LSQ: 2 IQ: 0, IPC: 0.0024
EPOCH ENDS
EPOCH STARTS
TH0 ROB: 4 LSQ: 0 IQ: 0 IPC: 0.0026
TH1 ROB: 4 LSQ: 1 IQ: 0, IPC: 0.5469
TH2 ROB: 104 LSQ: 85 IQ: 96, IPC: 1.6453
TH3 ROB: 4 LSQ: 2 IQ: 0, IPC: 0.0024
EPOCH ENDS
EPOCH STARTS
TH0 ROB: 4 LSQ: 0 IQ: 0 IPC: 0.0026
TH1 ROB: 4 LSQ: 1 IQ: 0, IPC: 0.5453
TH2 ROB: 105 LSQ: 86 IQ: 96, IPC: 1.6469
TH3 ROB: 4 LSQ: 2 IQ: 0, IPC: 0.0024
EPOCH ENDS
EPOCH STARTS
TH0 ROB: 4 LSQ: 0 IQ: 0 IPC: 0.0026
TH1 ROB: 4 LSQ: 1 IQ: 0, IPC: 0.5437
TH2 ROB: 105 LSQ: 87 IQ: 96, IPC: 1.6485
TH3 ROB: 4 LSQ: 2 IQ: 0, IPC: 0.0024
EPOCH ENDS
EPOCH STARTS
TH0 ROB: 4 LSQ: 0 IQ: 0 IPC: 0.0026
TH1 ROB: 4 LSQ: 1 IQ: 0, IPC: 0.5421
TH2 ROB: 106 LSQ: 87 IQ: 96, IPC: 1.6501
TH3 ROB: 4 LSQ: 2 IQ: 0, IPC: 0.0024
EPOCH ENDS
EPOCH STARTS
TH0 ROB: 4 LSQ: 0 IQ: 0 IPC: 0.0026
TH1 ROB: 4 LSQ: 1 IQ: 0, IPC: 0.5406
TH2 ROB: 104 LSQ: 85 IQ: 96, IPC: 1.6517
TH3 ROB: 4 LSQ: 2 IQ: 0, IPC: 0.0024
EPOCH ENDS
EPOCH STARTS
TH0 ROB: 4 LSQ: 0 IQ: 0 IPC: 0.0026
TH1 ROB: 4 LSQ: 1 IQ: 0, IPC: 0.5390
TH2 ROB: 104 LSQ: 85 IQ: 96, IPC: 1.6532
TH3 ROB: 4 LSQ: 2 IQ: 0, IPC: 0.0023
EPOCH ENDS
EPOCH STARTS
TH0 ROB: 4 LSQ: 0 IQ: 0 IPC: 0.0026
TH1 ROB: 4 LSQ: 1 IQ: 0, IPC: 0.5375
TH2 ROB: 104 LSQ: 85 IQ: 96, IPC: 1.6548
TH3 ROB: 4 LSQ: 2 IQ: 0, IPC: 0.0023
EPOCH ENDS
EPOCH STARTS
TH0 ROB: 4 LSQ: 0 IQ: 0 IPC: 0.0026
TH1 ROB: 4 LSQ: 1 IQ: 0, IPC: 0.5360
TH2 ROB: 105 LSQ: 87 IQ: 96, IPC: 1.6563
TH3 ROB: 4 LSQ: 2 IQ: 0, IPC: 0.0023
EPOCH ENDS
EPOCH STARTS
TH0 ROB: 4 LSQ: 0 IQ: 0 IPC: 0.0026
TH1 ROB: 4 LSQ: 1 IQ: 0, IPC: 0.5344
TH2 ROB: 105 LSQ: 86 IQ: 96, IPC: 1.6579
TH3 ROB: 4 LSQ: 2 IQ: 0, IPC: 0.0023
EPOCH ENDS
EPOCH STARTS
TH0 ROB: 4 LSQ: 0 IQ: 0 IPC: 0.0025
TH1 ROB: 4 LSQ: 1 IQ: 0, IPC: 0.5329
TH2 ROB: 104 LSQ: 85 IQ: 96, IPC: 1.6594
TH3 ROB: 4 LSQ: 2 IQ: 0, IPC: 0.0023
EPOCH ENDS
EPOCH STARTS
TH0 ROB: 4 LSQ: 0 IQ: 0 IPC: 0.0025
TH1 ROB: 4 LSQ: 1 IQ: 0, IPC: 0.5314
TH2 ROB: 104 LSQ: 85 IQ: 96, IPC: 1.6609
TH3 ROB: 4 LSQ: 2 IQ: 0, IPC: 0.0023
EPOCH ENDS
EPOCH STARTS
TH0 ROB: 4 LSQ: 0 IQ: 0 IPC: 0.0025
TH1 ROB: 4 LSQ: 1 IQ: 0, IPC: 0.5299
TH2 ROB: 104 LSQ: 87 IQ: 96, IPC: 1.6624
TH3 ROB: 4 LSQ: 2 IQ: 0, IPC: 0.0023
EPOCH ENDS
EPOCH STARTS
TH0 ROB: 4 LSQ: 0 IQ: 0 IPC: 0.0025
TH1 ROB: 4 LSQ: 1 IQ: 0, IPC: 0.5284
TH2 ROB: 105 LSQ: 87 IQ: 96, IPC: 1.6639
TH3 ROB: 4 LSQ: 2 IQ: 0, IPC: 0.0023
EPOCH ENDS
EPOCH STARTS
TH0 ROB: 4 LSQ: 0 IQ: 0 IPC: 0.0025
TH1 ROB: 4 LSQ: 1 IQ: 0, IPC: 0.5270
TH2 ROB: 105 LSQ: 85 IQ: 96, IPC: 1.6654
TH3 ROB: 4 LSQ: 2 IQ: 0, IPC: 0.0023
EPOCH ENDS
EPOCH STARTS
TH0 ROB: 4 LSQ: 0 IQ: 0 IPC: 0.0025
TH1 ROB: 4 LSQ: 1 IQ: 0, IPC: 0.5255
TH2 ROB: 104 LSQ: 85 IQ: 96, IPC: 1.6669
TH3 ROB: 4 LSQ: 2 IQ: 0, IPC: 0.0023
EPOCH ENDS
EPOCH STARTS
TH0 ROB: 4 LSQ: 0 IQ: 0 IPC: 0.0025
TH1 ROB: 4 LSQ: 1 IQ: 0, IPC: 0.5240
TH2 ROB: 104 LSQ: 85 IQ: 96, IPC: 1.6684
TH3 ROB: 4 LSQ: 2 IQ: 0, IPC: 0.0023
EPOCH ENDS
EPOCH STARTS
TH0 ROB: 4 LSQ: 0 IQ: 0 IPC: 0.0025
TH1 ROB: 4 LSQ: 1 IQ: 0, IPC: 0.5226
TH2 ROB: 104 LSQ: 86 IQ: 96, IPC: 1.6698
TH3 ROB: 4 LSQ: 2 IQ: 0, IPC: 0.0023
EPOCH ENDS
EPOCH STARTS
TH0 ROB: 4 LSQ: 0 IQ: 0 IPC: 0.0025
TH1 ROB: 4 LSQ: 1 IQ: 0, IPC: 0.5211
TH2 ROB: 107 LSQ: 88 IQ: 96, IPC: 1.6713
TH3 ROB: 4 LSQ: 2 IQ: 0, IPC: 0.0023
EPOCH ENDS
EPOCH STARTS
TH0 ROB: 4 LSQ: 0 IQ: 0 IPC: 0.0025
TH1 ROB: 4 LSQ: 1 IQ: 0, IPC: 0.5197
TH2 ROB: 105 LSQ: 86 IQ: 96, IPC: 1.6727
TH3 ROB: 4 LSQ: 2 IQ: 0, IPC: 0.0023
EPOCH ENDS
EPOCH STARTS
TH0 ROB: 4 LSQ: 0 IQ: 0 IPC: 0.0025
TH1 ROB: 4 LSQ: 1 IQ: 0, IPC: 0.5183
TH2 ROB: 105 LSQ: 85 IQ: 96, IPC: 1.6742
TH3 ROB: 4 LSQ: 2 IQ: 0, IPC: 0.0023
EPOCH ENDS
EPOCH STARTS
TH0 ROB: 4 LSQ: 0 IQ: 0 IPC: 0.0025
TH1 ROB: 4 LSQ: 1 IQ: 0, IPC: 0.5168
TH2 ROB: 104 LSQ: 85 IQ: 96, IPC: 1.6756
TH3 ROB: 4 LSQ: 2 IQ: 0, IPC: 0.0023
EPOCH ENDS
EPOCH STARTS
TH0 ROB: 4 LSQ: 0 IQ: 0 IPC: 0.0025
TH1 ROB: 4 LSQ: 1 IQ: 0, IPC: 0.5154
TH2 ROB: 105 LSQ: 87 IQ: 96, IPC: 1.6770
TH3 ROB: 4 LSQ: 2 IQ: 0, IPC: 0.0022
EPOCH ENDS
EPOCH STARTS
TH0 ROB: 4 LSQ: 0 IQ: 0 IPC: 0.0025
TH1 ROB: 4 LSQ: 1 IQ: 0, IPC: 0.5140
TH2 ROB: 105 LSQ: 86 IQ: 96, IPC: 1.6785
TH3 ROB: 4 LSQ: 2 IQ: 0, IPC: 0.0022
EPOCH ENDS
EPOCH STARTS
TH0 ROB: 4 LSQ: 0 IQ: 0 IPC: 0.0025
TH1 ROB: 4 LSQ: 1 IQ: 0, IPC: 0.5126
TH2 ROB: 104 LSQ: 85 IQ: 96, IPC: 1.6799
TH3 ROB: 4 LSQ: 2 IQ: 0, IPC: 0.0022
EPOCH ENDS
EPOCH STARTS
TH0 ROB: 4 LSQ: 0 IQ: 0 IPC: 0.0024
TH1 ROB: 4 LSQ: 1 IQ: 0, IPC: 0.5112
TH2 ROB: 105 LSQ: 86 IQ: 96, IPC: 1.6813
TH3 ROB: 4 LSQ: 2 IQ: 0, IPC: 0.0022
EPOCH ENDS
EPOCH STARTS
TH0 ROB: 4 LSQ: 0 IQ: 0 IPC: 0.0024
TH1 ROB: 4 LSQ: 1 IQ: 0, IPC: 0.5098
TH2 ROB: 105 LSQ: 87 IQ: 96, IPC: 1.6827
TH3 ROB: 4 LSQ: 2 IQ: 0, IPC: 0.0022
EPOCH ENDS
EPOCH STARTS
TH0 ROB: 4 LSQ: 0 IQ: 0 IPC: 0.0024
TH1 ROB: 4 LSQ: 1 IQ: 0, IPC: 0.5084
TH2 ROB: 105 LSQ: 87 IQ: 96, IPC: 1.6840
TH3 ROB: 4 LSQ: 2 IQ: 0, IPC: 0.0022
EPOCH ENDS
EPOCH STARTS
TH0 ROB: 4 LSQ: 0 IQ: 0 IPC: 0.0024
TH1 ROB: 4 LSQ: 1 IQ: 0, IPC: 0.5071
TH2 ROB: 106 LSQ: 87 IQ: 96, IPC: 1.6854
TH3 ROB: 4 LSQ: 2 IQ: 0, IPC: 0.0022
EPOCH ENDS
EPOCH STARTS
TH0 ROB: 4 LSQ: 0 IQ: 0 IPC: 0.0024
TH1 ROB: 4 LSQ: 1 IQ: 0, IPC: 0.5057
TH2 ROB: 104 LSQ: 85 IQ: 96, IPC: 1.6868
TH3 ROB: 4 LSQ: 2 IQ: 0, IPC: 0.0022
EPOCH ENDS
EPOCH STARTS
TH0 ROB: 4 LSQ: 0 IQ: 0 IPC: 0.0024
TH1 ROB: 4 LSQ: 1 IQ: 0, IPC: 0.5044
TH2 ROB: 104 LSQ: 85 IQ: 96, IPC: 1.6882
TH3 ROB: 4 LSQ: 2 IQ: 0, IPC: 0.0022
EPOCH ENDS
EPOCH STARTS
TH0 ROB: 4 LSQ: 0 IQ: 0 IPC: 0.0024
TH1 ROB: 4 LSQ: 1 IQ: 0, IPC: 0.5030
TH2 ROB: 105 LSQ: 87 IQ: 96, IPC: 1.6895
TH3 ROB: 4 LSQ: 2 IQ: 0, IPC: 0.0022
EPOCH ENDS
EPOCH STARTS
TH0 ROB: 4 LSQ: 0 IQ: 0 IPC: 0.0024
TH1 ROB: 4 LSQ: 1 IQ: 0, IPC: 0.5017
TH2 ROB: 106 LSQ: 87 IQ: 96, IPC: 1.6909
TH3 ROB: 4 LSQ: 2 IQ: 0, IPC: 0.0022
EPOCH ENDS
EPOCH STARTS
TH0 ROB: 4 LSQ: 0 IQ: 0 IPC: 0.0024
TH1 ROB: 4 LSQ: 1 IQ: 0, IPC: 0.5003
TH2 ROB: 106 LSQ: 87 IQ: 96, IPC: 1.6922
TH3 ROB: 4 LSQ: 2 IQ: 0, IPC: 0.0022
EPOCH ENDS
EPOCH STARTS
TH0 ROB: 4 LSQ: 0 IQ: 0 IPC: 0.0024
TH1 ROB: 4 LSQ: 1 IQ: 0, IPC: 0.4990
TH2 ROB: 106 LSQ: 87 IQ: 96, IPC: 1.6936
TH3 ROB: 4 LSQ: 2 IQ: 0, IPC: 0.0022
EPOCH ENDS
EPOCH STARTS
TH0 ROB: 4 LSQ: 0 IQ: 0 IPC: 0.0024
TH1 ROB: 4 LSQ: 1 IQ: 0, IPC: 0.4977
TH2 ROB: 104 LSQ: 86 IQ: 96, IPC: 1.6949
TH3 ROB: 4 LSQ: 2 IQ: 0, IPC: 0.0022
EPOCH ENDS
EPOCH STARTS
TH0 ROB: 4 LSQ: 0 IQ: 0 IPC: 0.0024
TH1 ROB: 4 LSQ: 1 IQ: 0, IPC: 0.4964
TH2 ROB: 104 LSQ: 87 IQ: 96, IPC: 1.6962
TH3 ROB: 4 LSQ: 2 IQ: 0, IPC: 0.0022
EPOCH ENDS
EPOCH STARTS
TH0 ROB: 4 LSQ: 0 IQ: 0 IPC: 0.0024
TH1 ROB: 4 LSQ: 1 IQ: 0, IPC: 0.4951
TH2 ROB: 105 LSQ: 86 IQ: 96, IPC: 1.6975
TH3 ROB: 4 LSQ: 2 IQ: 0, IPC: 0.0022
EPOCH ENDS
EPOCH STARTS
TH0 ROB: 4 LSQ: 0 IQ: 0 IPC: 0.0024
TH1 ROB: 4 LSQ: 1 IQ: 0, IPC: 0.4938
TH2 ROB: 105 LSQ: 86 IQ: 96, IPC: 1.6988
TH3 ROB: 4 LSQ: 2 IQ: 0, IPC: 0.0022
EPOCH ENDS
EPOCH STARTS
TH0 ROB: 4 LSQ: 0 IQ: 0 IPC: 0.0024
TH1 ROB: 4 LSQ: 1 IQ: 0, IPC: 0.4925
TH2 ROB: 106 LSQ: 87 IQ: 96, IPC: 1.7001
TH3 ROB: 4 LSQ: 2 IQ: 0, IPC: 0.0021
EPOCH ENDS
EPOCH STARTS
TH0 ROB: 4 LSQ: 0 IQ: 0 IPC: 0.0023
TH1 ROB: 4 LSQ: 1 IQ: 0, IPC: 0.4912
TH2 ROB: 105 LSQ: 87 IQ: 96, IPC: 1.7014
TH3 ROB: 4 LSQ: 2 IQ: 0, IPC: 0.0021
EPOCH ENDS
EPOCH STARTS
TH0 ROB: 4 LSQ: 0 IQ: 0 IPC: 0.0023
TH1 ROB: 4 LSQ: 1 IQ: 0, IPC: 0.4899
TH2 ROB: 105 LSQ: 86 IQ: 96, IPC: 1.7027
TH3 ROB: 4 LSQ: 2 IQ: 0, IPC: 0.0021
EPOCH ENDS
EPOCH STARTS
TH0 ROB: 4 LSQ: 0 IQ: 0 IPC: 0.0023
TH1 ROB: 4 LSQ: 1 IQ: 0, IPC: 0.4886
TH2 ROB: 105 LSQ: 86 IQ: 96, IPC: 1.7040
TH3 ROB: 4 LSQ: 2 IQ: 0, IPC: 0.0021
EPOCH ENDS
EPOCH STARTS
TH0 ROB: 4 LSQ: 0 IQ: 0 IPC: 0.0023
TH1 ROB: 4 LSQ: 1 IQ: 0, IPC: 0.4874
TH2 ROB: 105 LSQ: 86 IQ: 96, IPC: 1.7053
TH3 ROB: 4 LSQ: 2 IQ: 0, IPC: 0.0021
EPOCH ENDS
EPOCH STARTS
TH0 ROB: 4 LSQ: 0 IQ: 0 IPC: 0.0023
TH1 ROB: 4 LSQ: 1 IQ: 0, IPC: 0.4861
TH2 ROB: 105 LSQ: 86 IQ: 96, IPC: 1.7065
TH3 ROB: 4 LSQ: 2 IQ: 0, IPC: 0.0021
EPOCH ENDS
EPOCH STARTS
TH0 ROB: 4 LSQ: 0 IQ: 0 IPC: 0.0023
TH1 ROB: 4 LSQ: 1 IQ: 0, IPC: 0.4849
TH2 ROB: 105 LSQ: 87 IQ: 96, IPC: 1.7078
TH3 ROB: 4 LSQ: 2 IQ: 0, IPC: 0.0021
EPOCH ENDS
EPOCH STARTS
TH0 ROB: 4 LSQ: 0 IQ: 0 IPC: 0.0023
TH1 ROB: 4 LSQ: 1 IQ: 0, IPC: 0.4836
TH2 ROB: 105 LSQ: 86 IQ: 96, IPC: 1.7091
TH3 ROB: 4 LSQ: 2 IQ: 0, IPC: 0.0021
EPOCH ENDS
EPOCH STARTS
TH0 ROB: 4 LSQ: 0 IQ: 0 IPC: 0.0023
TH1 ROB: 4 LSQ: 1 IQ: 0, IPC: 0.4824
TH2 ROB: 105 LSQ: 86 IQ: 96, IPC: 1.7103
TH3 ROB: 4 LSQ: 2 IQ: 0, IPC: 0.0021
EPOCH ENDS
EPOCH STARTS
TH0 ROB: 4 LSQ: 0 IQ: 0 IPC: 0.0023
TH1 ROB: 4 LSQ: 1 IQ: 0, IPC: 0.4811
TH2 ROB: 105 LSQ: 86 IQ: 96, IPC: 1.7116
TH3 ROB: 4 LSQ: 2 IQ: 0, IPC: 0.0021
EPOCH ENDS
EPOCH STARTS
TH0 ROB: 4 LSQ: 0 IQ: 0 IPC: 0.0023
TH1 ROB: 4 LSQ: 1 IQ: 0, IPC: 0.4799
TH2 ROB: 105 LSQ: 87 IQ: 96, IPC: 1.7128
TH3 ROB: 4 LSQ: 2 IQ: 0, IPC: 0.0021
EPOCH ENDS
EPOCH STARTS
TH0 ROB: 4 LSQ: 0 IQ: 0 IPC: 0.0023
TH1 ROB: 4 LSQ: 1 IQ: 0, IPC: 0.4787
TH2 ROB: 105 LSQ: 88 IQ: 96, IPC: 1.7140
TH3 ROB: 4 LSQ: 2 IQ: 0, IPC: 0.0021
EPOCH ENDS
EPOCH STARTS
TH0 ROB: 4 LSQ: 0 IQ: 0 IPC: 0.0023
TH1 ROB: 4 LSQ: 1 IQ: 0, IPC: 0.4775
TH2 ROB: 104 LSQ: 85 IQ: 96, IPC: 1.7152
TH3 ROB: 4 LSQ: 2 IQ: 0, IPC: 0.0021
EPOCH ENDS
EPOCH STARTS
[...]
Thread_3_cpred_bimod.retstack_pops            0 # total number of address popped off of ret-addr stack
Thread_3_cpred_bimod.used_ras.PP            0 # total number of RAS predictions used
Thread_3_cpred_bimod.ras_hits.PP            0 # total number of RAS hits
Thread_3_cpred_bimod.ras_rate.PP <error: divide by zero> # RAS prediction rate (i.e., RAS hits/used RAS)
il1.accesses              549039077 # total number of accesses
il1.hits                  549038806 # total number of hits
il1.misses                      271 # total number of misses
il1.replacements                271 # total number of replacements
il1.writebacks                    0 # total number of writebacks
il1.invalidations                 0 # total number of invalidations
il1.miss_rate                0.0000 # miss rate (i.e., misses/ref)
il1.repl_rate                0.0000 # replacement rate (i.e., repls/ref)
il1.wb_rate                  0.0000 # writeback rate (i.e., wrbks/ref)
il1.inv_rate                 0.0000 # invalidation rate (i.e., invs/ref)
dl1.accesses              450960939 # total number of accesses
dl1.hits                  411747998 # total number of hits
dl1.misses                 39212941 # total number of misses
dl1.replacements           39212941 # total number of replacements
dl1.writebacks             39212468 # total number of writebacks
dl1.invalidations                 0 # total number of invalidations
dl1.miss_rate                0.0870 # miss rate (i.e., misses/ref)
dl1.repl_rate                0.0870 # replacement rate (i.e., repls/ref)
dl1.wb_rate                  0.0870 # writeback rate (i.e., wrbks/ref)
dl1.inv_rate                 0.0000 # invalidation rate (i.e., invs/ref)
ul2.accesses               78425680 # total number of accesses
ul2.hits                   58817926 # total number of hits
ul2.misses                 19607754 # total number of misses
ul2.replacements           19607754 # total number of replacements
ul2.writebacks             19606220 # total number of writebacks
ul2.invalidations                 0 # total number of invalidations
ul2.miss_rate                0.2500 # miss rate (i.e., misses/ref)
ul2.repl_rate                0.2500 # replacement rate (i.e., repls/ref)
ul2.wb_rate                  0.2500 # writeback rate (i.e., wrbks/ref)
ul2.inv_rate                 0.0000 # invalidation rate (i.e., invs/ref)
itlb.accesses             549039077 # total number of accesses
itlb.hits                 549039061 # total number of hits
itlb.misses                      16 # total number of misses
itlb.replacements                16 # total number of replacements
itlb.writebacks                   0 # total number of writebacks
itlb.invalidations                0 # total number of invalidations
itlb.miss_rate               0.0000 # miss rate (i.e., misses/ref)
itlb.repl_rate               0.0000 # replacement rate (i.e., repls/ref)
itlb.wb_rate                 0.0000 # writeback rate (i.e., wrbks/ref)
itlb.inv_rate                0.0000 # invalidation rate (i.e., invs/ref)
dtlb.accesses             450961585 # total number of accesses
dtlb.hits                 450655090 # total number of hits
dtlb.misses                  306495 # total number of misses
dtlb.replacements            306495 # total number of replacements
dtlb.writebacks                   0 # total number of writebacks
dtlb.invalidations                0 # total number of invalidations
dtlb.miss_rate               0.0007 # miss rate (i.e., misses/ref)
dtlb.repl_rate               0.0007 # replacement rate (i.e., repls/ref)
dtlb.wb_rate                 0.0000 # writeback rate (i.e., wrbks/ref)
dtlb.inv_rate                0.0000 # invalidation rate (i.e., invs/ref)
sim_invalid_addrs                 0 # total non-speculative bogus addresses seen (debug var)
ld_text_base           0x0120000000 # program text (code) segment base
mem->ld_text_size            589824 # program text (code) size in bytes
mem->ld_data_base      0x0140000000 # program initialized data segment base
mem->ld_data_size            179872 # program init'ed `.data' and uninit'ed `.bss' size in bytes
mem->ld_stack_base     0x011ff9b000 # program stack segment base (highest address in stack)
mem->ld_stack_size            16384 # program initial stack size
mem->ld_prog_entry     0x0120000300 # program entry point (initial PC)
mem->ld_environ_base   0x011ff97000 # program environment base address address
mem->ld_target_big_endian            0 # target executable endian-ness, non-zero if big endian
mem_0.page_count                106 # total number of pages allocated
mem_0.page_mem                 848k # total size of memory pages allocated
mem_0.ptab_misses              2165 # total first level page table misses
mem_0.ptab_accesses        61102560 # total page table accesses
mem_0.ptab_miss_rate         0.0000 # first level page table miss rate
ld_text_base           0x0120000000 # program text (code) segment base
mem->ld_text_size            401408 # program text (code) size in bytes
mem->ld_data_base      0x0140000000 # program initialized data segment base
mem->ld_data_size             70816 # program init'ed `.data' and uninit'ed `.bss' size in bytes
mem->ld_stack_base     0x011ff9b000 # program stack segment base (highest address in stack)
mem->ld_stack_size            16384 # program initial stack size
mem->ld_prog_entry     0x012000ff40 # program entry point (initial PC)
mem->ld_environ_base   0x011ff97000 # program environment base address address
mem->ld_target_big_endian            0 # target executable endian-ness, non-zero if big endian
mem_0.page_count               4157 # total number of pages allocated
mem_0.page_mem                 848k # total size of memory pages allocated
mem_0.ptab_misses              6321 # total first level page table misses
mem_0.ptab_accesses       223354318 # total page table accesses
mem_0.ptab_miss_rate         0.0000 # first level page table miss rate
ld_text_base           0x0120000000 # program text (code) segment base
mem->ld_text_size            163840 # program text (code) size in bytes
mem->ld_data_base      0x0140000000 # program initialized data segment base
mem->ld_data_size             79168 # program init'ed `.data' and uninit'ed `.bss' size in bytes
mem->ld_stack_base     0x011ff9b000 # program stack segment base (highest address in stack)
mem->ld_stack_size            16384 # program initial stack size
mem->ld_prog_entry     0x0120000300 # program entry point (initial PC)
mem->ld_environ_base   0x011ff97000 # program environment base address address
mem->ld_target_big_endian            0 # target executable endian-ness, non-zero if big endian
mem_0.page_count             154685 # total number of pages allocated
mem_0.page_mem                 848k # total size of memory pages allocated
mem_0.ptab_misses            170921 # total first level page table misses
mem_0.ptab_accesses      8393769014 # total page table accesses
mem_0.ptab_miss_rate         0.0000 # first level page table miss rate
ld_text_base           0x0120000000 # program text (code) segment base
mem->ld_text_size            974848 # program text (code) size in bytes
mem->ld_data_base      0x0140000000 # program initialized data segment base
mem->ld_data_size             79184 # program init'ed `.data' and uninit'ed `.bss' size in bytes
mem->ld_stack_base     0x011ff9b000 # program stack segment base (highest address in stack)
mem->ld_stack_size            16384 # program initial stack size
mem->ld_prog_entry     0x0120015580 # program entry point (initial PC)
mem->ld_environ_base   0x011ff97000 # program environment base address address
mem->ld_target_big_endian            0 # target executable endian-ness, non-zero if big endian
mem_0.page_count                162 # total number of pages allocated
mem_0.page_mem                 848k # total size of memory pages allocated
mem_0.ptab_misses             33114 # total first level page table misses
mem_0.ptab_accesses        72129042 # total page table accesses
mem_0.ptab_miss_rate         0.0000 # first level page table miss rate
rename_power           170831330.8521 # total power usage of rename unit
bpred_power            1130781596.2667 # total power usage of bpred unit
window_power           3569047442.0555 # total power usage of instruction window
lsq_power              1992927240.4008 # total power usage of load/store queue
regfile_power          893118024.3201 # total power usage of arch. regfile
icache_power           1058450497.7872 # total power usage of icache
dcache_power           2311943843.8834 # total power usage of dcache
dcache2_power          1300033981.9295 # total power usage of dcache2
alu_power              4735293863.5147 # total power usage of alu
falu_power             3570261239.8660 # total power usage of falu
resultbus_power        2253231538.7770 # total power usage of resultbus
clock_power            7621587330.2502 # total power usage of clock
avg_rename_power             0.6833 # avg power usage of rename unit
avg_bpred_power              4.5231 # avg power usage of bpred unit
avg_window_power            14.2762 # avg power usage of instruction window
avg_lsq_power                7.9717 # avg power usage of lsq
avg_regfile_power            3.5725 # avg power usage of arch. regfile
avg_icache_power             4.2338 # avg power usage of icache
avg_dcache_power             9.2478 # avg power usage of dcache
avg_dcache2_power            5.2001 # avg power usage of dcache2
avg_alu_power               18.9412 # avg power usage of alu
avg_falu_power              14.2810 # avg power usage of falu
avg_resultbus_power          9.0129 # avg power usage of resultbus
avg_clock_power             30.4863 # avg power usage of clock
fetch_stage_power      2189232094.0540 # total power usage of fetch stage
dispatch_stage_power   170831330.8521 # total power usage of dispatch stage
issue_stage_power      16162477910.5610 # total power usage of issue stage
avg_fetch_power              8.7569 # average power of fetch unit per cycle
avg_dispatch_power           0.6833 # average power of dispatch unit per cycle
avg_issue_power             64.6499 # average power of issue unit per cycle
total_power            27037246690.0374 # total power per cycle
avg_total_power_cycle      108.1490 # average total power per cycle
avg_total_power_cycle_nofp_nod2      88.6678 # average total power per cycle
avg_total_power_insn        49.2448 # average total power per insn
avg_total_power_insn_nofp_nod2      40.3742 # average total power per insn
rename_power_cc1       170828410.3197 # total power usage of rename unit_cc1
bpred_power_cc1        88707568.4219 # total power usage of bpred unit_cc1
window_power_cc1       3481232024.4002 # total power usage of instruction window_cc1
lsq_power_cc1          1750191536.2466 # total power usage of lsq_cc1
regfile_power_cc1      768124942.3086 # total power usage of arch. regfile_cc1
icache_power_cc1       1058422355.7056 # total power usage of icache_cc1
dcache_power_cc1       2493197447.6936 # total power usage of dcache_cc1
dcache2_power_cc1      203913969.6961 # total power usage of dcache2_cc1
alu_power_cc1          1165088846.5424 # total power usage of alu_cc1
resultbus_power_cc1    1893028251.6543 # total power usage of resultbus_cc1
clock_power_cc1        5419592623.0877 # total power usage of clock_cc1
avg_rename_power_cc1         0.6833 # avg power usage of rename unit_cc1
avg_bpred_power_cc1          0.3548 # avg power usage of bpred unit_cc1
avg_window_power_cc1        13.9249 # avg power usage of instruction window_cc1
avg_lsq_power_cc1            7.0008 # avg power usage of lsq_cc1
avg_regfile_power_cc1        3.0725 # avg power usage of arch. regfile_cc1
avg_icache_power_cc1         4.2337 # avg power usage of icache_cc1
avg_dcache_power_cc1         9.9728 # avg power usage of dcache_cc1
avg_dcache2_power_cc1        0.8157 # avg power usage of dcache2_cc1
avg_alu_power_cc1            4.6604 # avg power usage of alu_cc1
avg_resultbus_power_cc1       7.5721 # avg power usage of resultbus_cc1
avg_clock_power_cc1         21.6784 # avg power usage of clock_cc1
fetch_stage_power_cc1  1147129924.1275 # total power usage of fetch stage_cc1
dispatch_stage_power_cc1 170828410.3197 # total power usage of dispatch stage_cc1
issue_stage_power_cc1  10986652076.2332 # total power usage of issue stage_cc1
avg_fetch_power_cc1          4.5885 # average power of fetch unit per cycle_cc1
avg_dispatch_power_cc1       0.6833 # average power of dispatch unit per cycle_cc1
avg_issue_power_cc1         43.9466 # average power of issue unit per cycle_cc1
total_power_cycle_cc1  18492327976.0767 # total power per cycle_cc1
avg_total_power_cycle_cc1      73.9693 # average total power per cycle_cc1
avg_total_power_insn_cc1      33.6814 # average total power per insn_cc1
rename_power_cc2       93792820.3199 # total power usage of rename unit_cc2
bpred_power_cc2        44355385.3977 # total power usage of bpred unit_cc2
window_power_cc2       3428822236.7287 # total power usage of instruction window_cc2
lsq_power_cc2          993469666.2760 # total power usage of lsq_cc2
regfile_power_cc2      132913468.8680 # total power usage of arch. regfile_cc2
icache_power_cc2       1058422355.7056 # total power usage of icache_cc2
dcache_power_cc2       2085192736.6642 # total power usage of dcache_cc2
dcache2_power_cc2      203912097.6472 # total power usage of dcache2_cc2
alu_power_cc2          616811113.2127 # total power usage of alu_cc2
resultbus_power_cc2    1557767688.9406 # total power usage of resultbus_cc2
clock_power_cc2        4216563854.9174 # total power usage of clock_cc2
avg_rename_power_cc2         0.3752 # avg power usage of rename unit_cc2
avg_bpred_power_cc2          0.1774 # avg power usage of bpred unit_cc2
avg_window_power_cc2        13.7153 # avg power usage of instruction window_cc2
avg_lsq_power_cc2            3.9739 # avg power usage of instruction lsq_cc2
avg_regfile_power_cc2        0.5317 # avg power usage of arch. regfile_cc2
avg_icache_power_cc2         4.2337 # avg power usage of icache_cc2
avg_dcache_power_cc2         8.3408 # avg power usage of dcache_cc2
avg_dcache2_power_cc2        0.8156 # avg power usage of dcache2_cc2
avg_alu_power_cc2            2.4672 # avg power usage of alu_cc2
avg_resultbus_power_cc2       6.2311 # avg power usage of resultbus_cc2
avg_clock_power_cc2         16.8663 # avg power usage of clock_cc2
fetch_stage_power_cc2  1102777741.1033 # total power usage of fetch stage_cc2
dispatch_stage_power_cc2 93792820.3199 # total power usage of dispatch stage_cc2
issue_stage_power_cc2  8885975539.4695 # total power usage of issue stage_cc2
avg_fetch_power_cc2          4.4111 # average power of fetch unit per cycle_cc2
avg_dispatch_power_cc2       0.3752 # average power of dispatch unit per cycle_cc2
avg_issue_power_cc2         35.5439 # average power of issue unit per cycle_cc2
total_power_cycle_cc2  14432023424.6781 # total power per cycle_cc2
avg_total_power_cycle_cc2      57.7281 # average total power per cycle_cc2
avg_total_power_insn_cc2      26.2860 # average total power per insn_cc2
rename_power_cc3       93793112.3732 # total power usage of rename unit_cc3
bpred_power_cc3        148562802.5860 # total power usage of bpred unit_cc3
window_power_cc3       3428823365.5223 # total power usage of instruction window_cc3
lsq_power_cc3          1017743127.3974 # total power usage of lsq_cc3
regfile_power_cc3      134666093.2990 # total power usage of arch. regfile_cc3
icache_power_cc3       1058425169.9137 # total power usage of icache_cc3
dcache_power_cc3       2085198852.2181 # total power usage of dcache_cc3
dcache2_power_cc3      313524125.4196 # total power usage of dcache2_cc3
alu_power_cc3          973831619.8497 # total power usage of alu_cc3
resultbus_power_cc3    1557769234.6574 # total power usage of resultbus_cc3
clock_power_cc3        4421587105.5880 # total power usage of clock_cc3
avg_rename_power_cc3         0.3752 # avg power usage of rename unit_cc3
avg_bpred_power_cc3          0.5943 # avg power usage of bpred unit_cc3
avg_window_power_cc3        13.7153 # avg power usage of instruction window_cc3
avg_lsq_power_cc3            4.0710 # avg power usage of instruction lsq_cc3
avg_regfile_power_cc3        0.5387 # avg power usage of arch. regfile_cc3
avg_icache_power_cc3         4.2337 # avg power usage of icache_cc3
avg_dcache_power_cc3         8.3408 # avg power usage of dcache_cc3
avg_dcache2_power_cc3        1.2541 # avg power usage of dcache2_cc3
avg_alu_power_cc3            3.8953 # avg power usage of alu_cc3
avg_resultbus_power_cc3       6.2311 # avg power usage of resultbus_cc3
avg_clock_power_cc3         17.6863 # avg power usage of clock_cc3
fetch_stage_power_cc3  1206987972.4997 # total power usage of fetch stage_cc3
dispatch_stage_power_cc3 93793112.3732 # total power usage of dispatch stage_cc3
issue_stage_power_cc3  9376890325.0645 # total power usage of issue stage_cc3
avg_fetch_power_cc3          4.8280 # average power of fetch unit per cycle_cc3
avg_dispatch_power_cc3       0.3752 # average power of dispatch unit per cycle_cc3
avg_issue_power_cc3         37.5076 # average power of issue unit per cycle_cc3
total_power_cycle_cc3  15233924608.8244 # total power per cycle_cc3
avg_total_power_cycle_cc3      60.9357 # average total power per cycle_cc3
avg_total_power_insn_cc3      27.7466 # average total power per insn_cc3
total_rename_access       549037578 # total number accesses of rename unit
total_bpred_access         19612711 # total number accesses of bpred unit
total_window_access      2529414492 # total number accesses of instruction window
total_lsq_access          450961661 # total number accesses of load/store queue
total_regfile_access      509810580 # total number accesses of arch. regfile
total_icache_access       549040305 # total number accesses of icache
total_dcache_access       450960939 # total number accesses of dcache
total_dcache2_access       78425680 # total number accesses of dcache2
total_alu_access          529425671 # total number accesses of alu
total_resultbus_access    823525653 # total number accesses of resultbus
avg_rename_access            2.1962 # avg number accesses of rename unit
avg_bpred_access             0.0785 # avg number accesses of bpred unit
avg_window_access           10.1177 # avg number accesses of instruction window
avg_lsq_access               1.8038 # avg number accesses of lsq
avg_regfile_access           2.0392 # avg number accesses of arch. regfile
avg_icache_access            2.1962 # avg number accesses of icache
avg_dcache_access            1.8038 # avg number accesses of dcache
avg_dcache2_access           0.3137 # avg number accesses of dcache2
avg_alu_access               2.1177 # avg number accesses of alu
avg_resultbus_access         3.2941 # avg number accesses of resultbus
max_rename_access                 4 # max number accesses of rename unit
max_bpred_access                  4 # max number accesses of bpred unit
max_window_access                74 # max number accesses of instruction window
max_lsq_access                    3 # max number accesses of load/store queue
max_regfile_access               10 # max number accesses of arch. regfile
max_icache_access                 4 # max number accesses of icache
max_dcache_access                 4 # max number accesses of dcache
max_dcache2_access                6 # max number accesses of dcache2
max_alu_access                    4 # max number accesses of alu
max_resultbus_access             70 # max number accesses of resultbus
max_cycle_power_cc1        267.9907 # maximum cycle power usage of cc1
max_cycle_power_cc2        260.7807 # maximum cycle power usage of cc2
max_cycle_power_cc3        264.5906 # maximum cycle power usage of cc3


******* SMT STATS *******
THROUGHPUT IPC: 2.1961

TH0 IPC: 0.0001

TH1 IPC: 0.0188

TH2 IPC: 2.1771

TH3 IPC: 0.0001

